.subckt ALU_Reg_file_final_route Imm3t Imm2t Imm1t Imm0t select1t select0t readt addr0t addr1t write_flagst Op_Aritht Op_Andt Op_Xort Cmpl_b1t Cmpl_b0t Cint GCLKt reg1_out0_pad reg1_out1_pad reg1_out2_pad reg1_out3_pad reg2_out0_pad reg2_out1_pad reg2_out2_pad reg2_out3_pad regFlags_out0 regFlags_out0_pad regFlags_out1 regFlags_out1_pad regFlags_out2 regFlags_out2_pad

X685 X519-SPLITT-OUT-R-IN X519-SPLITT-OUT-R-INr LSmitll_PTLRX
X686 X519-SPLITT-OUT-R-INr X519-SPLITT-OUT-R-INdc LSmitll_SFQDC
R687 X519-SPLITT-OUT-R-INdc 0 5
X688 X519-SPLITT-OUT-R-IN PAD

X689 X520-SPLITT-OUT-R-IN X520-SPLITT-OUT-R-INr LSmitll_PTLRX
X690 X520-SPLITT-OUT-R-INr X520-SPLITT-OUT-R-INdc LSmitll_SFQDC
R691 X520-SPLITT-OUT-R-INdc 0 5
X692 X520-SPLITT-OUT-R-IN PAD

X693 X521-SPLITT-OUT-R-IN X521-SPLITT-OUT-R-INr LSmitll_PTLRX
X694 X521-SPLITT-OUT-R-INr X521-SPLITT-OUT-R-INdc LSmitll_SFQDC
R695 X521-SPLITT-OUT-R-INdc 0 5
X696 X521-SPLITT-OUT-R-IN PAD

X697 X522-SPLITT-OUT-R-IN X522-SPLITT-OUT-R-INr LSmitll_PTLRX
X698 X522-SPLITT-OUT-R-INr X522-SPLITT-OUT-R-INdc LSmitll_SFQDC
R699 X522-SPLITT-OUT-R-INdc 0 5
X700 X522-SPLITT-OUT-R-IN PAD

X701 X523-SPLITT-OUT-R-IN X523-SPLITT-OUT-R-INr LSmitll_PTLRX
X702 X523-SPLITT-OUT-R-INr X523-SPLITT-OUT-R-INdc LSmitll_SFQDC
R703 X523-SPLITT-OUT-R-INdc 0 5
X704 X523-SPLITT-OUT-R-IN PAD

X705 X524-SPLITT-OUT-R-IN X524-SPLITT-OUT-R-INr LSmitll_PTLRX
X706 X524-SPLITT-OUT-R-INr X524-SPLITT-OUT-R-INdc LSmitll_SFQDC
R707 X524-SPLITT-OUT-R-INdc 0 5
X708 X524-SPLITT-OUT-R-IN PAD

X709 X525-SPLITT-OUT-R-IN X525-SPLITT-OUT-R-INr LSmitll_PTLRX
X710 X525-SPLITT-OUT-R-INr X525-SPLITT-OUT-R-INdc LSmitll_SFQDC
R711 X525-SPLITT-OUT-R-INdc 0 5
X712 X525-SPLITT-OUT-R-IN PAD

X713 X526-SPLITT-OUT-R-IN X526-SPLITT-OUT-R-INr LSmitll_PTLRX
X714 X526-SPLITT-OUT-R-INr X526-SPLITT-OUT-R-INdc LSmitll_SFQDC
R715 X526-SPLITT-OUT-R-INdc 0 5
X716 X526-SPLITT-OUT-R-IN PAD

X717 X527-SPLITT-OUT-R-IN X527-SPLITT-OUT-R-INr LSmitll_PTLRX
X718 X527-SPLITT-OUT-R-INr X527-SPLITT-OUT-R-INdc LSmitll_SFQDC
R719 X527-SPLITT-OUT-R-INdc 0 5
X720 X527-SPLITT-OUT-R-IN PAD

X721 X528-SPLITT-OUT-R-IN X528-SPLITT-OUT-R-INr LSmitll_PTLRX
X722 X528-SPLITT-OUT-R-INr X528-SPLITT-OUT-R-INdc LSmitll_SFQDC
R723 X528-SPLITT-OUT-R-INdc 0 5
X724 X528-SPLITT-OUT-R-IN PAD

X725 X529-SPLITT-OUT-R-IN X529-SPLITT-OUT-R-INr LSmitll_PTLRX
X726 X529-SPLITT-OUT-R-INr X529-SPLITT-OUT-R-INdc LSmitll_SFQDC
R727 X529-SPLITT-OUT-R-INdc 0 5
X728 X529-SPLITT-OUT-R-IN PAD

X729 X530-SPLITT-OUT-R-IN X530-SPLITT-OUT-R-INr LSmitll_PTLRX
X730 X530-SPLITT-OUT-R-INr X530-SPLITT-OUT-R-INdc LSmitll_SFQDC
R731 X530-SPLITT-OUT-R-INdc 0 5
X732 X530-SPLITT-OUT-R-IN PAD

X733 X531-SPLITT-OUT-R-IN X531-SPLITT-OUT-R-INr LSmitll_PTLRX
X734 X531-SPLITT-OUT-R-INr X531-SPLITT-OUT-R-INdc LSmitll_SFQDC
R735 X531-SPLITT-OUT-R-INdc 0 5
X736 X531-SPLITT-OUT-R-IN PAD

X737 X532-SPLITT-OUT-R-IN X532-SPLITT-OUT-R-INr LSmitll_PTLRX
X738 X532-SPLITT-OUT-R-INr X532-SPLITT-OUT-R-INdc LSmitll_SFQDC
R739 X532-SPLITT-OUT-R-INdc 0 5
X740 X532-SPLITT-OUT-R-IN PAD

X741 X533-SPLITT-OUT-R-IN X533-SPLITT-OUT-R-INr LSmitll_PTLRX
X742 X533-SPLITT-OUT-R-INr X533-SPLITT-OUT-R-INdc LSmitll_SFQDC
R743 X533-SPLITT-OUT-R-INdc 0 5
X744 X533-SPLITT-OUT-R-IN PAD

X745 X534-SPLITT-OUT-R-IN X534-SPLITT-OUT-R-INr LSmitll_PTLRX
X746 X534-SPLITT-OUT-R-INr X534-SPLITT-OUT-R-INdc LSmitll_SFQDC
R747 X534-SPLITT-OUT-R-INdc 0 5
X748 X534-SPLITT-OUT-R-IN PAD

X749 X535-SPLITT-OUT-R-IN X535-SPLITT-OUT-R-INr LSmitll_PTLRX
X750 X535-SPLITT-OUT-R-INr X535-SPLITT-OUT-R-INdc LSmitll_SFQDC
R751 X535-SPLITT-OUT-R-INdc 0 5
X752 X535-SPLITT-OUT-R-IN PAD

X753 X536-SPLITT-OUT-R-IN X536-SPLITT-OUT-R-INr LSmitll_PTLRX
X754 X536-SPLITT-OUT-R-INr X536-SPLITT-OUT-R-INdc LSmitll_SFQDC
R755 X536-SPLITT-OUT-R-INdc 0 5
X756 X536-SPLITT-OUT-R-IN PAD

X757 X537-SPLITT-OUT-R-IN X537-SPLITT-OUT-R-INr LSmitll_PTLRX
X758 X537-SPLITT-OUT-R-INr X537-SPLITT-OUT-R-INdc LSmitll_SFQDC
R759 X537-SPLITT-OUT-R-INdc 0 5
X760 X537-SPLITT-OUT-R-IN PAD

X761 X538-SPLITT-OUT-R-IN X538-SPLITT-OUT-R-INr LSmitll_PTLRX
X762 X538-SPLITT-OUT-R-INr X538-SPLITT-OUT-R-INdc LSmitll_SFQDC
R763 X538-SPLITT-OUT-R-INdc 0 5
X764 X538-SPLITT-OUT-R-IN PAD

X765 X539-SPLITT-OUT-R-IN X539-SPLITT-OUT-R-INr LSmitll_PTLRX
X766 X539-SPLITT-OUT-R-INr X539-SPLITT-OUT-R-INdc LSmitll_SFQDC
R767 X539-SPLITT-OUT-R-INdc 0 5
X768 X539-SPLITT-OUT-R-IN PAD

X769 X540-SPLITT-OUT-R-IN X540-SPLITT-OUT-R-INr LSmitll_PTLRX
X770 X540-SPLITT-OUT-R-INr X540-SPLITT-OUT-R-INdc LSmitll_SFQDC
R771 X540-SPLITT-OUT-R-INdc 0 5
X772 X540-SPLITT-OUT-R-IN PAD

X773 X541-SPLITT-OUT-R-IN X541-SPLITT-OUT-R-INr LSmitll_PTLRX
X774 X541-SPLITT-OUT-R-INr X541-SPLITT-OUT-R-INdc LSmitll_SFQDC
R775 X541-SPLITT-OUT-R-INdc 0 5
X776 X541-SPLITT-OUT-R-IN PAD

X777 X542-SPLITT-OUT-R-IN X542-SPLITT-OUT-R-INr LSmitll_PTLRX
X778 X542-SPLITT-OUT-R-INr X542-SPLITT-OUT-R-INdc LSmitll_SFQDC
R779 X542-SPLITT-OUT-R-INdc 0 5
X780 X542-SPLITT-OUT-R-IN PAD

X781 X543-SPLITT-OUT-R-IN X543-SPLITT-OUT-R-INr LSmitll_PTLRX
X782 X543-SPLITT-OUT-R-INr X543-SPLITT-OUT-R-INdc LSmitll_SFQDC
R783 X543-SPLITT-OUT-R-INdc 0 5
X784 X543-SPLITT-OUT-R-IN PAD

X785 X544-SPLITT-OUT-R-IN X544-SPLITT-OUT-R-INr LSmitll_PTLRX
X786 X544-SPLITT-OUT-R-INr X544-SPLITT-OUT-R-INdc LSmitll_SFQDC
R787 X544-SPLITT-OUT-R-INdc 0 5
X788 X544-SPLITT-OUT-R-IN PAD

X789 X545-SPLITT-OUT-R-IN X545-SPLITT-OUT-R-INr LSmitll_PTLRX
X790 X545-SPLITT-OUT-R-INr X545-SPLITT-OUT-R-INdc LSmitll_SFQDC
R791 X545-SPLITT-OUT-R-INdc 0 5
X792 X545-SPLITT-OUT-R-IN PAD

X793 X546-SPLITT-OUT-R-IN X546-SPLITT-OUT-R-INr LSmitll_PTLRX
X794 X546-SPLITT-OUT-R-INr X546-SPLITT-OUT-R-INdc LSmitll_SFQDC
R795 X546-SPLITT-OUT-R-INdc 0 5
X796 X546-SPLITT-OUT-R-IN PAD

X797 X547-SPLITT-OUT-R-IN X547-SPLITT-OUT-R-INr LSmitll_PTLRX
X798 X547-SPLITT-OUT-R-INr X547-SPLITT-OUT-R-INdc LSmitll_SFQDC
R799 X547-SPLITT-OUT-R-INdc 0 5
X800 X547-SPLITT-OUT-R-IN PAD

X801 X548-SPLITT-OUT-R-IN X548-SPLITT-OUT-R-INr LSmitll_PTLRX
X802 X548-SPLITT-OUT-R-INr X548-SPLITT-OUT-R-INdc LSmitll_SFQDC
R803 X548-SPLITT-OUT-R-INdc 0 5
X804 X548-SPLITT-OUT-R-IN PAD

X805 X549-SPLITT-OUT-R-IN X549-SPLITT-OUT-R-INr LSmitll_PTLRX
X806 X549-SPLITT-OUT-R-INr X549-SPLITT-OUT-R-INdc LSmitll_SFQDC
R807 X549-SPLITT-OUT-R-INdc 0 5
X808 X549-SPLITT-OUT-R-IN PAD

X809 X550-SPLITT-OUT-R-IN X550-SPLITT-OUT-R-INr LSmitll_PTLRX
X810 X550-SPLITT-OUT-R-INr X550-SPLITT-OUT-R-INdc LSmitll_SFQDC
R811 X550-SPLITT-OUT-R-INdc 0 5
X812 X550-SPLITT-OUT-R-IN PAD

X813 X551-SPLITT-OUT-R-IN X551-SPLITT-OUT-R-INr LSmitll_PTLRX
X814 X551-SPLITT-OUT-R-INr X551-SPLITT-OUT-R-INdc LSmitll_SFQDC
R815 X551-SPLITT-OUT-R-INdc 0 5
X816 X551-SPLITT-OUT-R-IN PAD

X817 X552-SPLITT-OUT-R-IN X552-SPLITT-OUT-R-INr LSmitll_PTLRX
X818 X552-SPLITT-OUT-R-INr X552-SPLITT-OUT-R-INdc LSmitll_SFQDC
R819 X552-SPLITT-OUT-R-INdc 0 5
X820 X552-SPLITT-OUT-R-IN PAD

X821 X553-SPLITT-OUT-R-IN X553-SPLITT-OUT-R-INr LSmitll_PTLRX
X822 X553-SPLITT-OUT-R-INr X553-SPLITT-OUT-R-INdc LSmitll_SFQDC
R823 X553-SPLITT-OUT-R-INdc 0 5
X824 X553-SPLITT-OUT-R-IN PAD

X825 X554-SPLITT-OUT-R-IN X554-SPLITT-OUT-R-INr LSmitll_PTLRX
X826 X554-SPLITT-OUT-R-INr X554-SPLITT-OUT-R-INdc LSmitll_SFQDC
R827 X554-SPLITT-OUT-R-INdc 0 5
X828 X554-SPLITT-OUT-R-IN PAD

X829 X555-SPLITT-OUT-R-IN X555-SPLITT-OUT-R-INr LSmitll_PTLRX
X830 X555-SPLITT-OUT-R-INr X555-SPLITT-OUT-R-INdc LSmitll_SFQDC
R831 X555-SPLITT-OUT-R-INdc 0 5
X832 X555-SPLITT-OUT-R-IN PAD

X833 X556-SPLITT-OUT-R-IN X556-SPLITT-OUT-R-INr LSmitll_PTLRX
X834 X556-SPLITT-OUT-R-INr X556-SPLITT-OUT-R-INdc LSmitll_SFQDC
R835 X556-SPLITT-OUT-R-INdc 0 5
X836 X556-SPLITT-OUT-R-IN PAD

X837 X557-SPLITT-OUT-R-IN X557-SPLITT-OUT-R-INr LSmitll_PTLRX
X838 X557-SPLITT-OUT-R-INr X557-SPLITT-OUT-R-INdc LSmitll_SFQDC
R839 X557-SPLITT-OUT-R-INdc 0 5
X840 X557-SPLITT-OUT-R-IN PAD

X841 X558-SPLITT-OUT-R-IN X558-SPLITT-OUT-R-INr LSmitll_PTLRX
X842 X558-SPLITT-OUT-R-INr X558-SPLITT-OUT-R-INdc LSmitll_SFQDC
R843 X558-SPLITT-OUT-R-INdc 0 5
X844 X558-SPLITT-OUT-R-IN PAD

X845 X559-SPLITT-OUT-R-IN X559-SPLITT-OUT-R-INr LSmitll_PTLRX
X846 X559-SPLITT-OUT-R-INr X559-SPLITT-OUT-R-INdc LSmitll_SFQDC
R847 X559-SPLITT-OUT-R-INdc 0 5
X848 X559-SPLITT-OUT-R-IN PAD

X849 X560-SPLITT-OUT-R-IN X560-SPLITT-OUT-R-INr LSmitll_PTLRX
X850 X560-SPLITT-OUT-R-INr X560-SPLITT-OUT-R-INdc LSmitll_SFQDC
R851 X560-SPLITT-OUT-R-INdc 0 5
X852 X560-SPLITT-OUT-R-IN PAD

X853 X561-SPLITT-OUT-R-IN X561-SPLITT-OUT-R-INr LSmitll_PTLRX
X854 X561-SPLITT-OUT-R-INr X561-SPLITT-OUT-R-INdc LSmitll_SFQDC
R855 X561-SPLITT-OUT-R-INdc 0 5
X856 X561-SPLITT-OUT-R-IN PAD

X857 X562-SPLITT-OUT-R-IN X562-SPLITT-OUT-R-INr LSmitll_PTLRX
X858 X562-SPLITT-OUT-R-INr X562-SPLITT-OUT-R-INdc LSmitll_SFQDC
R859 X562-SPLITT-OUT-R-INdc 0 5
X860 X562-SPLITT-OUT-R-IN PAD

X861 X563-SPLITT-OUT-R-IN X563-SPLITT-OUT-R-INr LSmitll_PTLRX
X862 X563-SPLITT-OUT-R-INr X563-SPLITT-OUT-R-INdc LSmitll_SFQDC
R863 X563-SPLITT-OUT-R-INdc 0 5
X864 X563-SPLITT-OUT-R-IN PAD



t869 X1-LSmitll_DFFT-OUT-X57-LSmitll_AND2T-INt 0 X1-LSmitll_DFFT-OUT-X57-LSmitll_AND2T-IN 0 z0=5 td=2.9ps
X1 Imm3 X519-LSmitll_SPLITT-OUT-X1-LSmitll_DFFT-IN X1-LSmitll_DFFT-OUT-X57-LSmitll_AND2T-INt LSmitll_DFFT

t870 X2-LSmitll_DFFT-OUT-X59-LSmitll_AND2T-INt 0 X2-LSmitll_DFFT-OUT-X59-LSmitll_AND2T-IN 0 z0=5 td=1.0ps
X2 Imm2 X422-LSmitll_SPLITT-OUT-X2-LSmitll_DFFT-IN X2-LSmitll_DFFT-OUT-X59-LSmitll_AND2T-INt LSmitll_DFFT

t871 X3-LSmitll_SPLITT-OUT-X5-LSmitll_SPLITT-INt 0 X3-LSmitll_SPLITT-OUT-X5-LSmitll_SPLITT-IN 0 z0=5 td=1.7ps
t872 X3-LSmitll_SPLITT-OUT-X4-LSmitll_SPLITT-INt 0 X3-LSmitll_SPLITT-OUT-X4-LSmitll_SPLITT-IN 0 z0=5 td=5.1ps
X3 select1 X3-LSmitll_SPLITT-OUT-X5-LSmitll_SPLITT-INt X3-LSmitll_SPLITT-OUT-X4-LSmitll_SPLITT-INt LSmitll_SPLITT

t873 X4-LSmitll_SPLITT-OUT-X24-LSmitll_DFFT-INt 0 X4-LSmitll_SPLITT-OUT-X24-LSmitll_DFFT-IN 0 z0=5 td=3.3ps
t874 X4-LSmitll_SPLITT-OUT-X23-LSmitll_NOTT-INt 0 X4-LSmitll_SPLITT-OUT-X23-LSmitll_NOTT-IN 0 z0=5 td=2.2ps
X4 X3-LSmitll_SPLITT-OUT-X4-LSmitll_SPLITT-IN X4-LSmitll_SPLITT-OUT-X24-LSmitll_DFFT-INt X4-LSmitll_SPLITT-OUT-X23-LSmitll_NOTT-INt LSmitll_SPLITT

t875 X5-LSmitll_SPLITT-OUT-X26-LSmitll_DFFT-INt 0 X5-LSmitll_SPLITT-OUT-X26-LSmitll_DFFT-IN 0 z0=5 td=2.6ps
t876 X5-LSmitll_SPLITT-OUT-X25-LSmitll_NOTT-INt 0 X5-LSmitll_SPLITT-OUT-X25-LSmitll_NOTT-IN 0 z0=5 td=1.1ps
X5 X3-LSmitll_SPLITT-OUT-X5-LSmitll_SPLITT-IN X5-LSmitll_SPLITT-OUT-X26-LSmitll_DFFT-INt X5-LSmitll_SPLITT-OUT-X25-LSmitll_NOTT-INt LSmitll_SPLITT

t877 X6-LSmitll_DFFT-OUT-X61-LSmitll_AND2T-INt 0 X6-LSmitll_DFFT-OUT-X61-LSmitll_AND2T-IN 0 z0=5 td=11.3ps
X6 Imm1 X342-LSmitll_SPLITT-OUT-X6-LSmitll_DFFT-IN X6-LSmitll_DFFT-OUT-X61-LSmitll_AND2T-INt LSmitll_DFFT

t878 X7-LSmitll_DFFT-OUT-X63-LSmitll_AND2T-INt 0 X7-LSmitll_DFFT-OUT-X63-LSmitll_AND2T-IN 0 z0=5 td=2.7ps
X7 Imm0 X520-LSmitll_SPLITT-OUT-X7-LSmitll_DFFT-IN X7-LSmitll_DFFT-OUT-X63-LSmitll_AND2T-INt LSmitll_DFFT

t879 X8-LSmitll_SPLITT-OUT-X10-LSmitll_SPLITT-INt 0 X8-LSmitll_SPLITT-OUT-X10-LSmitll_SPLITT-IN 0 z0=5 td=1.7ps
t880 X8-LSmitll_SPLITT-OUT-X9-LSmitll_SPLITT-INt 0 X8-LSmitll_SPLITT-OUT-X9-LSmitll_SPLITT-IN 0 z0=5 td=1.5ps
X8 select0 X8-LSmitll_SPLITT-OUT-X10-LSmitll_SPLITT-INt X8-LSmitll_SPLITT-OUT-X9-LSmitll_SPLITT-INt LSmitll_SPLITT

t881 X9-LSmitll_SPLITT-OUT-X28-LSmitll_DFFT-INt 0 X9-LSmitll_SPLITT-OUT-X28-LSmitll_DFFT-IN 0 z0=5 td=3.2ps
t882 X9-LSmitll_SPLITT-OUT-X27-LSmitll_NOTT-INt 0 X9-LSmitll_SPLITT-OUT-X27-LSmitll_NOTT-IN 0 z0=5 td=1.1ps
X9 X8-LSmitll_SPLITT-OUT-X9-LSmitll_SPLITT-IN X9-LSmitll_SPLITT-OUT-X28-LSmitll_DFFT-INt X9-LSmitll_SPLITT-OUT-X27-LSmitll_NOTT-INt LSmitll_SPLITT

t883 X10-LSmitll_SPLITT-OUT-X30-LSmitll_DFFT-INt 0 X10-LSmitll_SPLITT-OUT-X30-LSmitll_DFFT-IN 0 z0=5 td=1.6ps
t884 X10-LSmitll_SPLITT-OUT-X29-LSmitll_NOTT-INt 0 X10-LSmitll_SPLITT-OUT-X29-LSmitll_NOTT-IN 0 z0=5 td=10.9ps
X10 X8-LSmitll_SPLITT-OUT-X10-LSmitll_SPLITT-IN X10-LSmitll_SPLITT-OUT-X30-LSmitll_DFFT-INt X10-LSmitll_SPLITT-OUT-X29-LSmitll_NOTT-INt LSmitll_SPLITT

t885 X11-LSmitll_SPLITT-OUT-X13-LSmitll_SPLITT-INt 0 X11-LSmitll_SPLITT-OUT-X13-LSmitll_SPLITT-IN 0 z0=5 td=1.7ps
t886 X11-LSmitll_SPLITT-OUT-X12-LSmitll_SPLITT-INt 0 X11-LSmitll_SPLITT-OUT-X12-LSmitll_SPLITT-IN 0 z0=5 td=2.7ps
X11 read X11-LSmitll_SPLITT-OUT-X13-LSmitll_SPLITT-INt X11-LSmitll_SPLITT-OUT-X12-LSmitll_SPLITT-INt LSmitll_SPLITT

t887 X12-LSmitll_SPLITT-OUT-X32-LSmitll_DFFT-INt 0 X12-LSmitll_SPLITT-OUT-X32-LSmitll_DFFT-IN 0 z0=5 td=3.1ps
t888 X12-LSmitll_SPLITT-OUT-X31-LSmitll_DFFT-INt 0 X12-LSmitll_SPLITT-OUT-X31-LSmitll_DFFT-IN 0 z0=5 td=2.6ps
X12 X11-LSmitll_SPLITT-OUT-X12-LSmitll_SPLITT-IN X12-LSmitll_SPLITT-OUT-X32-LSmitll_DFFT-INt X12-LSmitll_SPLITT-OUT-X31-LSmitll_DFFT-INt LSmitll_SPLITT

t889 X13-LSmitll_SPLITT-OUT-X34-LSmitll_DFFT-INt 0 X13-LSmitll_SPLITT-OUT-X34-LSmitll_DFFT-IN 0 z0=5 td=3.3ps
t890 X13-LSmitll_SPLITT-OUT-X33-LSmitll_DFFT-INt 0 X13-LSmitll_SPLITT-OUT-X33-LSmitll_DFFT-IN 0 z0=5 td=2.3ps
X13 X11-LSmitll_SPLITT-OUT-X13-LSmitll_SPLITT-IN X13-LSmitll_SPLITT-OUT-X34-LSmitll_DFFT-INt X13-LSmitll_SPLITT-OUT-X33-LSmitll_DFFT-INt LSmitll_SPLITT

t891 X14-LSmitll_SPLITT-OUT-X36-LSmitll_DFFT-INt 0 X14-LSmitll_SPLITT-OUT-X36-LSmitll_DFFT-IN 0 z0=5 td=1.3ps
t892 X14-LSmitll_SPLITT-OUT-X35-LSmitll_DFFT-INt 0 X14-LSmitll_SPLITT-OUT-X35-LSmitll_DFFT-IN 0 z0=5 td=3.9ps
X14 addr0 X14-LSmitll_SPLITT-OUT-X36-LSmitll_DFFT-INt X14-LSmitll_SPLITT-OUT-X35-LSmitll_DFFT-INt LSmitll_SPLITT

t893 X15-LSmitll_SPLITT-OUT-X38-LSmitll_DFFT-INt 0 X15-LSmitll_SPLITT-OUT-X38-LSmitll_DFFT-IN 0 z0=5 td=1.6ps
t894 X15-LSmitll_SPLITT-OUT-X37-LSmitll_DFFT-INt 0 X15-LSmitll_SPLITT-OUT-X37-LSmitll_DFFT-IN 0 z0=5 td=2.7ps
X15 addr1 X15-LSmitll_SPLITT-OUT-X38-LSmitll_DFFT-INt X15-LSmitll_SPLITT-OUT-X37-LSmitll_DFFT-INt LSmitll_SPLITT

t895 X16-LSmitll_SPLITT-OUT-X40-LSmitll_DFFT-INt 0 X16-LSmitll_SPLITT-OUT-X40-LSmitll_DFFT-IN 0 z0=5 td=1.6ps
t896 X16-LSmitll_SPLITT-OUT-X39-LSmitll_DFFT-INt 0 X16-LSmitll_SPLITT-OUT-X39-LSmitll_DFFT-IN 0 z0=5 td=4.5ps
X16 write_flags X16-LSmitll_SPLITT-OUT-X40-LSmitll_DFFT-INt X16-LSmitll_SPLITT-OUT-X39-LSmitll_DFFT-INt LSmitll_SPLITT

t897 X17-LSmitll_SPLITT-OUT-X143-LSmitll_XORT-INt 0 X17-LSmitll_SPLITT-OUT-X143-LSmitll_XORT-IN 0 z0=5 td=2.1ps
t898 X17-LSmitll_SPLITT-OUT-X141-LSmitll_XORT-INt 0 X17-LSmitll_SPLITT-OUT-X141-LSmitll_XORT-IN 0 z0=5 td=2.7ps
X17 Cmpl_b1 X17-LSmitll_SPLITT-OUT-X143-LSmitll_XORT-INt X17-LSmitll_SPLITT-OUT-X141-LSmitll_XORT-INt LSmitll_SPLITT

t899 X18-LSmitll_SPLITT-OUT-X147-LSmitll_XORT-INt 0 X18-LSmitll_SPLITT-OUT-X147-LSmitll_XORT-IN 0 z0=5 td=3.2ps
t900 X18-LSmitll_SPLITT-OUT-X145-LSmitll_XORT-INt 0 X18-LSmitll_SPLITT-OUT-X145-LSmitll_XORT-IN 0 z0=5 td=2.2ps
X18 Cmpl_b0 X18-LSmitll_SPLITT-OUT-X147-LSmitll_XORT-INt X18-LSmitll_SPLITT-OUT-X145-LSmitll_XORT-INt LSmitll_SPLITT

t901 X19-LSmitll_DFFT-OUT-X167-LSmitll_DFFT-INt 0 X19-LSmitll_DFFT-OUT-X167-LSmitll_DFFT-IN 0 z0=5 td=2.2ps
X19 Cin X362-LSmitll_SPLITT-OUT-X19-LSmitll_DFFT-IN X19-LSmitll_DFFT-OUT-X167-LSmitll_DFFT-INt LSmitll_DFFT

t902 X20-LSmitll_DFFT-OUT-X164-LSmitll_DFFT-INt 0 X20-LSmitll_DFFT-OUT-X164-LSmitll_DFFT-IN 0 z0=5 td=2.2ps
X20 Op_Arith X323-LSmitll_SPLITT-OUT-X20-LSmitll_DFFT-IN X20-LSmitll_DFFT-OUT-X164-LSmitll_DFFT-INt LSmitll_DFFT

t903 X21-LSmitll_DFFT-OUT-X165-LSmitll_DFFT-INt 0 X21-LSmitll_DFFT-OUT-X165-LSmitll_DFFT-IN 0 z0=5 td=1.0ps
X21 Op_And X521-LSmitll_SPLITT-OUT-X21-LSmitll_DFFT-IN X21-LSmitll_DFFT-OUT-X165-LSmitll_DFFT-INt LSmitll_DFFT

t904 X22-LSmitll_DFFT-OUT-X166-LSmitll_DFFT-INt 0 X22-LSmitll_DFFT-OUT-X166-LSmitll_DFFT-IN 0 z0=5 td=3.5ps
X22 Op_Xor X375-LSmitll_SPLITT-OUT-X22-LSmitll_DFFT-IN X22-LSmitll_DFFT-OUT-X166-LSmitll_DFFT-INt LSmitll_DFFT

t905 X23-LSmitll_NOTT-OUT-X57-LSmitll_AND2T-INt 0 X23-LSmitll_NOTT-OUT-X57-LSmitll_AND2T-IN 0 z0=5 td=2.1ps
X23 X4-LSmitll_SPLITT-OUT-X23-LSmitll_NOTT-IN X441-LSmitll_SPLITT-OUT-X23-LSmitll_NOTT-IN X23-LSmitll_NOTT-OUT-X57-LSmitll_AND2T-INt LSmitll_NOTT

t906 X24-LSmitll_DFFT-OUT-X58-LSmitll_AND2T-INt 0 X24-LSmitll_DFFT-OUT-X58-LSmitll_AND2T-IN 0 z0=5 td=2.4ps
X24 X4-LSmitll_SPLITT-OUT-X24-LSmitll_DFFT-IN X441-LSmitll_SPLITT-OUT-X24-LSmitll_DFFT-IN X24-LSmitll_DFFT-OUT-X58-LSmitll_AND2T-INt LSmitll_DFFT

t907 X25-LSmitll_NOTT-OUT-X59-LSmitll_AND2T-INt 0 X25-LSmitll_NOTT-OUT-X59-LSmitll_AND2T-IN 0 z0=5 td=4.7ps
X25 X5-LSmitll_SPLITT-OUT-X25-LSmitll_NOTT-IN X415-LSmitll_SPLITT-OUT-X25-LSmitll_NOTT-IN X25-LSmitll_NOTT-OUT-X59-LSmitll_AND2T-INt LSmitll_NOTT

t908 X26-LSmitll_DFFT-OUT-X60-LSmitll_AND2T-INt 0 X26-LSmitll_DFFT-OUT-X60-LSmitll_AND2T-IN 0 z0=5 td=2.4ps
X26 X5-LSmitll_SPLITT-OUT-X26-LSmitll_DFFT-IN X421-LSmitll_SPLITT-OUT-X26-LSmitll_DFFT-IN X26-LSmitll_DFFT-OUT-X60-LSmitll_AND2T-INt LSmitll_DFFT

t909 X27-LSmitll_NOTT-OUT-X61-LSmitll_AND2T-INt 0 X27-LSmitll_NOTT-OUT-X61-LSmitll_AND2T-IN 0 z0=5 td=14.8ps
X27 X9-LSmitll_SPLITT-OUT-X27-LSmitll_NOTT-IN X317-LSmitll_SPLITT-OUT-X27-LSmitll_NOTT-IN X27-LSmitll_NOTT-OUT-X61-LSmitll_AND2T-INt LSmitll_NOTT

t910 X28-LSmitll_DFFT-OUT-X62-LSmitll_AND2T-INt 0 X28-LSmitll_DFFT-OUT-X62-LSmitll_AND2T-IN 0 z0=5 td=1.0ps
X28 X9-LSmitll_SPLITT-OUT-X28-LSmitll_DFFT-IN X311-LSmitll_SPLITT-OUT-X28-LSmitll_DFFT-IN X28-LSmitll_DFFT-OUT-X62-LSmitll_AND2T-INt LSmitll_DFFT

t911 X29-LSmitll_NOTT-OUT-X63-LSmitll_AND2T-INt 0 X29-LSmitll_NOTT-OUT-X63-LSmitll_AND2T-IN 0 z0=5 td=3.8ps
X29 X10-LSmitll_SPLITT-OUT-X29-LSmitll_NOTT-IN X337-LSmitll_SPLITT-OUT-X29-LSmitll_NOTT-IN X29-LSmitll_NOTT-OUT-X63-LSmitll_AND2T-INt LSmitll_NOTT

t912 X30-LSmitll_DFFT-OUT-X64-LSmitll_AND2T-INt 0 X30-LSmitll_DFFT-OUT-X64-LSmitll_AND2T-IN 0 z0=5 td=12.1ps
X30 X10-LSmitll_SPLITT-OUT-X30-LSmitll_DFFT-IN X336-LSmitll_SPLITT-OUT-X30-LSmitll_DFFT-IN X30-LSmitll_DFFT-OUT-X64-LSmitll_AND2T-INt LSmitll_DFFT

t913 X31-LSmitll_DFFT-OUT-X65-LSmitll_DFFT-INt 0 X31-LSmitll_DFFT-OUT-X65-LSmitll_DFFT-IN 0 z0=5 td=1.0ps
X31 X12-LSmitll_SPLITT-OUT-X31-LSmitll_DFFT-IN X403-LSmitll_SPLITT-OUT-X31-LSmitll_DFFT-IN X31-LSmitll_DFFT-OUT-X65-LSmitll_DFFT-INt LSmitll_DFFT

t914 X32-LSmitll_DFFT-OUT-X66-LSmitll_DFFT-INt 0 X32-LSmitll_DFFT-OUT-X66-LSmitll_DFFT-IN 0 z0=5 td=14.8ps
X32 X12-LSmitll_SPLITT-OUT-X32-LSmitll_DFFT-IN X408-LSmitll_SPLITT-OUT-X32-LSmitll_DFFT-IN X32-LSmitll_DFFT-OUT-X66-LSmitll_DFFT-INt LSmitll_DFFT

t915 X33-LSmitll_DFFT-OUT-X67-LSmitll_DFFT-INt 0 X33-LSmitll_DFFT-OUT-X67-LSmitll_DFFT-IN 0 z0=5 td=1.0ps
X33 X13-LSmitll_SPLITT-OUT-X33-LSmitll_DFFT-IN X406-LSmitll_SPLITT-OUT-X33-LSmitll_DFFT-IN X33-LSmitll_DFFT-OUT-X67-LSmitll_DFFT-INt LSmitll_DFFT

t916 X34-LSmitll_DFFT-OUT-X68-LSmitll_DFFT-INt 0 X34-LSmitll_DFFT-OUT-X68-LSmitll_DFFT-IN 0 z0=5 td=2.2ps
X34 X13-LSmitll_SPLITT-OUT-X34-LSmitll_DFFT-IN X522-LSmitll_SPLITT-OUT-X34-LSmitll_DFFT-IN X34-LSmitll_DFFT-OUT-X68-LSmitll_DFFT-INt LSmitll_DFFT

t917 X35-LSmitll_DFFT-OUT-X41-LSmitll_SPLITT-INt 0 X35-LSmitll_DFFT-OUT-X41-LSmitll_SPLITT-IN 0 z0=5 td=2.3ps
X35 X14-LSmitll_SPLITT-OUT-X35-LSmitll_DFFT-IN X344-LSmitll_SPLITT-OUT-X35-LSmitll_DFFT-IN X35-LSmitll_DFFT-OUT-X41-LSmitll_SPLITT-INt LSmitll_DFFT

t918 X36-LSmitll_DFFT-OUT-X44-LSmitll_SPLITT-INt 0 X36-LSmitll_DFFT-OUT-X44-LSmitll_SPLITT-IN 0 z0=5 td=11.6ps
X36 X14-LSmitll_SPLITT-OUT-X36-LSmitll_DFFT-IN X317-LSmitll_SPLITT-OUT-X36-LSmitll_DFFT-IN X36-LSmitll_DFFT-OUT-X44-LSmitll_SPLITT-INt LSmitll_DFFT

t919 X37-LSmitll_DFFT-OUT-X47-LSmitll_SPLITT-INt 0 X37-LSmitll_DFFT-OUT-X47-LSmitll_SPLITT-IN 0 z0=5 td=2.1ps
X37 X15-LSmitll_SPLITT-OUT-X37-LSmitll_DFFT-IN X313-LSmitll_SPLITT-OUT-X37-LSmitll_DFFT-IN X37-LSmitll_DFFT-OUT-X47-LSmitll_SPLITT-INt LSmitll_DFFT

t920 X38-LSmitll_DFFT-OUT-X50-LSmitll_SPLITT-INt 0 X38-LSmitll_DFFT-OUT-X50-LSmitll_SPLITT-IN 0 z0=5 td=4.8ps
X38 X15-LSmitll_SPLITT-OUT-X38-LSmitll_DFFT-IN X313-LSmitll_SPLITT-OUT-X38-LSmitll_DFFT-IN X38-LSmitll_DFFT-OUT-X50-LSmitll_SPLITT-INt LSmitll_DFFT

t921 X39-LSmitll_DFFT-OUT-X54-LSmitll_SPLITT-INt 0 X39-LSmitll_DFFT-OUT-X54-LSmitll_SPLITT-IN 0 z0=5 td=8.9ps
X39 X16-LSmitll_SPLITT-OUT-X39-LSmitll_DFFT-IN X444-LSmitll_SPLITT-OUT-X39-LSmitll_DFFT-IN X39-LSmitll_DFFT-OUT-X54-LSmitll_SPLITT-INt LSmitll_DFFT

t922 X40-LSmitll_DFFT-OUT-X53-LSmitll_SPLITT-INt 0 X40-LSmitll_DFFT-OUT-X53-LSmitll_SPLITT-IN 0 z0=5 td=2.1ps
X40 X16-LSmitll_SPLITT-OUT-X40-LSmitll_DFFT-IN X344-LSmitll_SPLITT-OUT-X40-LSmitll_DFFT-IN X40-LSmitll_DFFT-OUT-X53-LSmitll_SPLITT-INt LSmitll_DFFT

t923 X41-LSmitll_SPLITT-OUT-X43-LSmitll_SPLITT-INt 0 X41-LSmitll_SPLITT-OUT-X43-LSmitll_SPLITT-IN 0 z0=5 td=2.6ps
t924 X41-LSmitll_SPLITT-OUT-X42-LSmitll_SPLITT-INt 0 X41-LSmitll_SPLITT-OUT-X42-LSmitll_SPLITT-IN 0 z0=5 td=3.5ps
X41 X35-LSmitll_DFFT-OUT-X41-LSmitll_SPLITT-IN X41-LSmitll_SPLITT-OUT-X43-LSmitll_SPLITT-INt X41-LSmitll_SPLITT-OUT-X42-LSmitll_SPLITT-INt LSmitll_SPLITT

t925 X42-LSmitll_SPLITT-OUT-X86-LSmitll_AND2T-INt 0 X42-LSmitll_SPLITT-OUT-X86-LSmitll_AND2T-IN 0 z0=5 td=2.4ps
t926 X42-LSmitll_SPLITT-OUT-X85-LSmitll_NDROT-INt 0 X42-LSmitll_SPLITT-OUT-X85-LSmitll_NDROT-IN 0 z0=5 td=2.4ps
X42 X41-LSmitll_SPLITT-OUT-X42-LSmitll_SPLITT-IN X42-LSmitll_SPLITT-OUT-X86-LSmitll_AND2T-INt X42-LSmitll_SPLITT-OUT-X85-LSmitll_NDROT-INt LSmitll_SPLITT

t927 X43-LSmitll_SPLITT-OUT-X89-LSmitll_AND2T-INt 0 X43-LSmitll_SPLITT-OUT-X89-LSmitll_AND2T-IN 0 z0=5 td=1.7ps
t928 X43-LSmitll_SPLITT-OUT-X88-LSmitll_NDROT-INt 0 X43-LSmitll_SPLITT-OUT-X88-LSmitll_NDROT-IN 0 z0=5 td=2.8ps
X43 X41-LSmitll_SPLITT-OUT-X43-LSmitll_SPLITT-IN X43-LSmitll_SPLITT-OUT-X89-LSmitll_AND2T-INt X43-LSmitll_SPLITT-OUT-X88-LSmitll_NDROT-INt LSmitll_SPLITT

t929 X44-LSmitll_SPLITT-OUT-X46-LSmitll_SPLITT-INt 0 X44-LSmitll_SPLITT-OUT-X46-LSmitll_SPLITT-IN 0 z0=5 td=3.2ps
t930 X44-LSmitll_SPLITT-OUT-X45-LSmitll_SPLITT-INt 0 X44-LSmitll_SPLITT-OUT-X45-LSmitll_SPLITT-IN 0 z0=5 td=1.5ps
X44 X36-LSmitll_DFFT-OUT-X44-LSmitll_SPLITT-IN X44-LSmitll_SPLITT-OUT-X46-LSmitll_SPLITT-INt X44-LSmitll_SPLITT-OUT-X45-LSmitll_SPLITT-INt LSmitll_SPLITT

t931 X45-LSmitll_SPLITT-OUT-X92-LSmitll_AND2T-INt 0 X45-LSmitll_SPLITT-OUT-X92-LSmitll_AND2T-IN 0 z0=5 td=4.5ps
t932 X45-LSmitll_SPLITT-OUT-X91-LSmitll_NDROT-INt 0 X45-LSmitll_SPLITT-OUT-X91-LSmitll_NDROT-IN 0 z0=5 td=1.1ps
X45 X44-LSmitll_SPLITT-OUT-X45-LSmitll_SPLITT-IN X45-LSmitll_SPLITT-OUT-X92-LSmitll_AND2T-INt X45-LSmitll_SPLITT-OUT-X91-LSmitll_NDROT-INt LSmitll_SPLITT

t933 X46-LSmitll_SPLITT-OUT-X95-LSmitll_AND2T-INt 0 X46-LSmitll_SPLITT-OUT-X95-LSmitll_AND2T-IN 0 z0=5 td=2.7ps
t934 X46-LSmitll_SPLITT-OUT-X94-LSmitll_NDROT-INt 0 X46-LSmitll_SPLITT-OUT-X94-LSmitll_NDROT-IN 0 z0=5 td=5.7ps
X46 X44-LSmitll_SPLITT-OUT-X46-LSmitll_SPLITT-IN X46-LSmitll_SPLITT-OUT-X95-LSmitll_AND2T-INt X46-LSmitll_SPLITT-OUT-X94-LSmitll_NDROT-INt LSmitll_SPLITT

t935 X47-LSmitll_SPLITT-OUT-X49-LSmitll_SPLITT-INt 0 X47-LSmitll_SPLITT-OUT-X49-LSmitll_SPLITT-IN 0 z0=5 td=2.6ps
t936 X47-LSmitll_SPLITT-OUT-X48-LSmitll_SPLITT-INt 0 X47-LSmitll_SPLITT-OUT-X48-LSmitll_SPLITT-IN 0 z0=5 td=1.9ps
X47 X37-LSmitll_DFFT-OUT-X47-LSmitll_SPLITT-IN X47-LSmitll_SPLITT-OUT-X49-LSmitll_SPLITT-INt X47-LSmitll_SPLITT-OUT-X48-LSmitll_SPLITT-INt LSmitll_SPLITT

t937 X48-LSmitll_SPLITT-OUT-X98-LSmitll_AND2T-INt 0 X48-LSmitll_SPLITT-OUT-X98-LSmitll_AND2T-IN 0 z0=5 td=3.4ps
t938 X48-LSmitll_SPLITT-OUT-X97-LSmitll_NDROT-INt 0 X48-LSmitll_SPLITT-OUT-X97-LSmitll_NDROT-IN 0 z0=5 td=2.4ps
X48 X47-LSmitll_SPLITT-OUT-X48-LSmitll_SPLITT-IN X48-LSmitll_SPLITT-OUT-X98-LSmitll_AND2T-INt X48-LSmitll_SPLITT-OUT-X97-LSmitll_NDROT-INt LSmitll_SPLITT

t939 X49-LSmitll_SPLITT-OUT-X101-LSmitll_AND2T-INt 0 X49-LSmitll_SPLITT-OUT-X101-LSmitll_AND2T-IN 0 z0=5 td=1.7ps
t940 X49-LSmitll_SPLITT-OUT-X100-LSmitll_NDROT-INt 0 X49-LSmitll_SPLITT-OUT-X100-LSmitll_NDROT-IN 0 z0=5 td=1.1ps
X49 X47-LSmitll_SPLITT-OUT-X49-LSmitll_SPLITT-IN X49-LSmitll_SPLITT-OUT-X101-LSmitll_AND2T-INt X49-LSmitll_SPLITT-OUT-X100-LSmitll_NDROT-INt LSmitll_SPLITT

t941 X50-LSmitll_SPLITT-OUT-X52-LSmitll_SPLITT-INt 0 X50-LSmitll_SPLITT-OUT-X52-LSmitll_SPLITT-IN 0 z0=5 td=3.7ps
t942 X50-LSmitll_SPLITT-OUT-X51-LSmitll_SPLITT-INt 0 X50-LSmitll_SPLITT-OUT-X51-LSmitll_SPLITT-IN 0 z0=5 td=2.1ps
X50 X38-LSmitll_DFFT-OUT-X50-LSmitll_SPLITT-IN X50-LSmitll_SPLITT-OUT-X52-LSmitll_SPLITT-INt X50-LSmitll_SPLITT-OUT-X51-LSmitll_SPLITT-INt LSmitll_SPLITT

t943 X51-LSmitll_SPLITT-OUT-X104-LSmitll_AND2T-INt 0 X51-LSmitll_SPLITT-OUT-X104-LSmitll_AND2T-IN 0 z0=5 td=3.6ps
t944 X51-LSmitll_SPLITT-OUT-X103-LSmitll_NDROT-INt 0 X51-LSmitll_SPLITT-OUT-X103-LSmitll_NDROT-IN 0 z0=5 td=2.4ps
X51 X50-LSmitll_SPLITT-OUT-X51-LSmitll_SPLITT-IN X51-LSmitll_SPLITT-OUT-X104-LSmitll_AND2T-INt X51-LSmitll_SPLITT-OUT-X103-LSmitll_NDROT-INt LSmitll_SPLITT

t945 X52-LSmitll_SPLITT-OUT-X107-LSmitll_AND2T-INt 0 X52-LSmitll_SPLITT-OUT-X107-LSmitll_AND2T-IN 0 z0=5 td=1.7ps
t946 X52-LSmitll_SPLITT-OUT-X106-LSmitll_NDROT-INt 0 X52-LSmitll_SPLITT-OUT-X106-LSmitll_NDROT-IN 0 z0=5 td=4.1ps
X52 X50-LSmitll_SPLITT-OUT-X52-LSmitll_SPLITT-IN X52-LSmitll_SPLITT-OUT-X107-LSmitll_AND2T-INt X52-LSmitll_SPLITT-OUT-X106-LSmitll_NDROT-INt LSmitll_SPLITT

t947 X53-LSmitll_SPLITT-OUT-X116-LSmitll_AND2T-INt 0 X53-LSmitll_SPLITT-OUT-X116-LSmitll_AND2T-IN 0 z0=5 td=3.6ps
t948 X53-LSmitll_SPLITT-OUT-X115-LSmitll_NDROT-INt 0 X53-LSmitll_SPLITT-OUT-X115-LSmitll_NDROT-IN 0 z0=5 td=2.4ps
X53 X40-LSmitll_DFFT-OUT-X53-LSmitll_SPLITT-IN X53-LSmitll_SPLITT-OUT-X116-LSmitll_AND2T-INt X53-LSmitll_SPLITT-OUT-X115-LSmitll_NDROT-INt LSmitll_SPLITT

t949 X54-LSmitll_SPLITT-OUT-X56-LSmitll_SPLITT-INt 0 X54-LSmitll_SPLITT-OUT-X56-LSmitll_SPLITT-IN 0 z0=5 td=2.5ps
t950 X54-LSmitll_SPLITT-OUT-X55-LSmitll_SPLITT-INt 0 X54-LSmitll_SPLITT-OUT-X55-LSmitll_SPLITT-IN 0 z0=5 td=2.1ps
X54 X39-LSmitll_DFFT-OUT-X54-LSmitll_SPLITT-IN X54-LSmitll_SPLITT-OUT-X56-LSmitll_SPLITT-INt X54-LSmitll_SPLITT-OUT-X55-LSmitll_SPLITT-INt LSmitll_SPLITT

t951 X55-LSmitll_SPLITT-OUT-X110-LSmitll_AND2T-INt 0 X55-LSmitll_SPLITT-OUT-X110-LSmitll_AND2T-IN 0 z0=5 td=1.7ps
t952 X55-LSmitll_SPLITT-OUT-X109-LSmitll_NDROT-INt 0 X55-LSmitll_SPLITT-OUT-X109-LSmitll_NDROT-IN 0 z0=5 td=7.7ps
X55 X54-LSmitll_SPLITT-OUT-X55-LSmitll_SPLITT-IN X55-LSmitll_SPLITT-OUT-X110-LSmitll_AND2T-INt X55-LSmitll_SPLITT-OUT-X109-LSmitll_NDROT-INt LSmitll_SPLITT

t953 X56-LSmitll_SPLITT-OUT-X113-LSmitll_AND2T-INt 0 X56-LSmitll_SPLITT-OUT-X113-LSmitll_AND2T-IN 0 z0=5 td=4.2ps
t954 X56-LSmitll_SPLITT-OUT-X112-LSmitll_NDROT-INt 0 X56-LSmitll_SPLITT-OUT-X112-LSmitll_NDROT-IN 0 z0=5 td=2.4ps
X56 X54-LSmitll_SPLITT-OUT-X56-LSmitll_SPLITT-IN X56-LSmitll_SPLITT-OUT-X113-LSmitll_AND2T-INt X56-LSmitll_SPLITT-OUT-X112-LSmitll_NDROT-INt LSmitll_SPLITT

t955 X57-LSmitll_AND2T-OUT-X73-LSmitll_OR2T-INt 0 X57-LSmitll_AND2T-OUT-X73-LSmitll_OR2T-IN 0 z0=5 td=2.6ps
X57 X1-LSmitll_DFFT-OUT-X57-LSmitll_AND2T-IN X23-LSmitll_NOTT-OUT-X57-LSmitll_AND2T-IN X442-LSmitll_SPLITT-OUT-X57-LSmitll_AND2T-IN X57-LSmitll_AND2T-OUT-X73-LSmitll_OR2T-INt LSmitll_AND2T

t956 X58-LSmitll_AND2T-OUT-X73-LSmitll_OR2T-INt 0 X58-LSmitll_AND2T-OUT-X73-LSmitll_OR2T-IN 0 z0=5 td=4.3ps
X58 X24-LSmitll_DFFT-OUT-X58-LSmitll_AND2T-IN X303-LSmitll_DFFT-OUT-X58-LSmitll_AND2T-IN X442-LSmitll_SPLITT-OUT-X58-LSmitll_AND2T-IN X58-LSmitll_AND2T-OUT-X73-LSmitll_OR2T-INt LSmitll_AND2T

t957 X59-LSmitll_AND2T-OUT-X74-LSmitll_OR2T-INt 0 X59-LSmitll_AND2T-OUT-X74-LSmitll_OR2T-IN 0 z0=5 td=2.4ps
X59 X2-LSmitll_DFFT-OUT-X59-LSmitll_AND2T-IN X25-LSmitll_NOTT-OUT-X59-LSmitll_AND2T-IN X421-LSmitll_SPLITT-OUT-X59-LSmitll_AND2T-IN X59-LSmitll_AND2T-OUT-X74-LSmitll_OR2T-INt LSmitll_AND2T

t958 X60-LSmitll_AND2T-OUT-X74-LSmitll_OR2T-INt 0 X60-LSmitll_AND2T-OUT-X74-LSmitll_OR2T-IN 0 z0=5 td=2.9ps
X60 X26-LSmitll_DFFT-OUT-X60-LSmitll_AND2T-IN X304-LSmitll_DFFT-OUT-X60-LSmitll_AND2T-IN X422-LSmitll_SPLITT-OUT-X60-LSmitll_AND2T-IN X60-LSmitll_AND2T-OUT-X74-LSmitll_OR2T-INt LSmitll_AND2T

t959 X61-LSmitll_AND2T-OUT-X75-LSmitll_OR2T-INt 0 X61-LSmitll_AND2T-OUT-X75-LSmitll_OR2T-IN 0 z0=5 td=2.6ps
X61 X6-LSmitll_DFFT-OUT-X61-LSmitll_AND2T-IN X27-LSmitll_NOTT-OUT-X61-LSmitll_AND2T-IN X310-LSmitll_SPLITT-OUT-X61-LSmitll_AND2T-IN X61-LSmitll_AND2T-OUT-X75-LSmitll_OR2T-INt LSmitll_AND2T

t960 X62-LSmitll_AND2T-OUT-X75-LSmitll_OR2T-INt 0 X62-LSmitll_AND2T-OUT-X75-LSmitll_OR2T-IN 0 z0=5 td=1.4ps
X62 X28-LSmitll_DFFT-OUT-X62-LSmitll_AND2T-IN X305-LSmitll_DFFT-OUT-X62-LSmitll_AND2T-IN X311-LSmitll_SPLITT-OUT-X62-LSmitll_AND2T-IN X62-LSmitll_AND2T-OUT-X75-LSmitll_OR2T-INt LSmitll_AND2T

t961 X63-LSmitll_AND2T-OUT-X76-LSmitll_OR2T-INt 0 X63-LSmitll_AND2T-OUT-X76-LSmitll_OR2T-IN 0 z0=5 td=2.6ps
X63 X7-LSmitll_DFFT-OUT-X63-LSmitll_AND2T-IN X29-LSmitll_NOTT-OUT-X63-LSmitll_AND2T-IN X523-LSmitll_SPLITT-OUT-X63-LSmitll_AND2T-IN X63-LSmitll_AND2T-OUT-X76-LSmitll_OR2T-INt LSmitll_AND2T

t962 X64-LSmitll_AND2T-OUT-X76-LSmitll_OR2T-INt 0 X64-LSmitll_AND2T-OUT-X76-LSmitll_OR2T-IN 0 z0=5 td=4.5ps
X64 X30-LSmitll_DFFT-OUT-X64-LSmitll_AND2T-IN X306-LSmitll_DFFT-OUT-X64-LSmitll_AND2T-IN X342-LSmitll_SPLITT-OUT-X64-LSmitll_AND2T-IN X64-LSmitll_AND2T-OUT-X76-LSmitll_OR2T-INt LSmitll_AND2T

t963 X65-LSmitll_DFFT-OUT-X69-LSmitll_SPLITT-INt 0 X65-LSmitll_DFFT-OUT-X69-LSmitll_SPLITT-IN 0 z0=5 td=11.7ps
X65 X31-LSmitll_DFFT-OUT-X65-LSmitll_DFFT-IN X524-LSmitll_SPLITT-OUT-X65-LSmitll_DFFT-IN X65-LSmitll_DFFT-OUT-X69-LSmitll_SPLITT-INt LSmitll_DFFT

t964 X66-LSmitll_DFFT-OUT-X70-LSmitll_SPLITT-INt 0 X66-LSmitll_DFFT-OUT-X70-LSmitll_SPLITT-IN 0 z0=5 td=4.7ps
X66 X32-LSmitll_DFFT-OUT-X66-LSmitll_DFFT-IN X507-LSmitll_SPLITT-OUT-X66-LSmitll_DFFT-IN X66-LSmitll_DFFT-OUT-X70-LSmitll_SPLITT-INt LSmitll_DFFT

t965 X67-LSmitll_DFFT-OUT-X71-LSmitll_SPLITT-INt 0 X67-LSmitll_DFFT-OUT-X71-LSmitll_SPLITT-IN 0 z0=5 td=7.2ps
X67 X33-LSmitll_DFFT-OUT-X67-LSmitll_DFFT-IN X525-LSmitll_SPLITT-OUT-X67-LSmitll_DFFT-IN X67-LSmitll_DFFT-OUT-X71-LSmitll_SPLITT-INt LSmitll_DFFT

t966 X68-LSmitll_DFFT-OUT-X72-LSmitll_SPLITT-INt 0 X68-LSmitll_DFFT-OUT-X72-LSmitll_SPLITT-IN 0 z0=5 td=2.1ps
X68 X34-LSmitll_DFFT-OUT-X68-LSmitll_DFFT-IN X487-LSmitll_SPLITT-OUT-X68-LSmitll_DFFT-IN X68-LSmitll_DFFT-OUT-X72-LSmitll_SPLITT-INt LSmitll_DFFT

t967 X69-LSmitll_SPLITT-OUT-X120-LSmitll_AND2T-INt 0 X69-LSmitll_SPLITT-OUT-X120-LSmitll_AND2T-IN 0 z0=5 td=3.3ps
t968 X69-LSmitll_SPLITT-OUT-X118-LSmitll_AND2T-INt 0 X69-LSmitll_SPLITT-OUT-X118-LSmitll_AND2T-IN 0 z0=5 td=3.6ps