.subckt Control_Unit_final_route bit7t bit6t bit5t bit4t bit3t bit2t bit1t overflowt zerot negt GCLKt Imm3 Imm2 Imm1 Imm0 select1 select0 read Addr1 Addr0 write_flags Op_Arith Op_And Op_Xor Cmpl_b1 Cmpl_b0 Cin readNextInstr1 readNextInstr0 nextInstrAddr1_1 nextInstrAddr1_0 nextInstrAddr0_1 nextInstrAddr0_0

X696 X546-SPLITT-OUT-R-IN X546-SPLITT-OUT-R-INr LSmitll_PTLRX
X697 X546-SPLITT-OUT-R-INr X546-SPLITT-OUT-R-INdc LSmitll_SFQDC
R698 X546-SPLITT-OUT-R-INdc 0 5
X699 X546-SPLITT-OUT-R-IN PAD

X700 X547-SPLITT-OUT-R-IN X547-SPLITT-OUT-R-INr LSmitll_PTLRX
X701 X547-SPLITT-OUT-R-INr X547-SPLITT-OUT-R-INdc LSmitll_SFQDC
R702 X547-SPLITT-OUT-R-INdc 0 5
X703 X547-SPLITT-OUT-R-IN PAD

X704 X548-SPLITT-OUT-R-IN X548-SPLITT-OUT-R-INr LSmitll_PTLRX
X705 X548-SPLITT-OUT-R-INr X548-SPLITT-OUT-R-INdc LSmitll_SFQDC
R706 X548-SPLITT-OUT-R-INdc 0 5
X707 X548-SPLITT-OUT-R-IN PAD

X708 X549-SPLITT-OUT-R-IN X549-SPLITT-OUT-R-INr LSmitll_PTLRX
X709 X549-SPLITT-OUT-R-INr X549-SPLITT-OUT-R-INdc LSmitll_SFQDC
R710 X549-SPLITT-OUT-R-INdc 0 5
X711 X549-SPLITT-OUT-R-IN PAD

X712 X550-SPLITT-OUT-R-IN X550-SPLITT-OUT-R-INr LSmitll_PTLRX
X713 X550-SPLITT-OUT-R-INr X550-SPLITT-OUT-R-INdc LSmitll_SFQDC
R714 X550-SPLITT-OUT-R-INdc 0 5
X715 X550-SPLITT-OUT-R-IN PAD

X716 X551-SPLITT-OUT-R-IN X551-SPLITT-OUT-R-INr LSmitll_PTLRX
X717 X551-SPLITT-OUT-R-INr X551-SPLITT-OUT-R-INdc LSmitll_SFQDC
R718 X551-SPLITT-OUT-R-INdc 0 5
X719 X551-SPLITT-OUT-R-IN PAD

X720 X552-SPLITT-OUT-R-IN X552-SPLITT-OUT-R-INr LSmitll_PTLRX
X721 X552-SPLITT-OUT-R-INr X552-SPLITT-OUT-R-INdc LSmitll_SFQDC
R722 X552-SPLITT-OUT-R-INdc 0 5
X723 X552-SPLITT-OUT-R-IN PAD

X724 X553-SPLITT-OUT-R-IN X553-SPLITT-OUT-R-INr LSmitll_PTLRX
X725 X553-SPLITT-OUT-R-INr X553-SPLITT-OUT-R-INdc LSmitll_SFQDC
R726 X553-SPLITT-OUT-R-INdc 0 5
X727 X553-SPLITT-OUT-R-IN PAD

X728 X554-SPLITT-OUT-R-IN X554-SPLITT-OUT-R-INr LSmitll_PTLRX
X729 X554-SPLITT-OUT-R-INr X554-SPLITT-OUT-R-INdc LSmitll_SFQDC
R730 X554-SPLITT-OUT-R-INdc 0 5
X731 X554-SPLITT-OUT-R-IN PAD

X732 X555-SPLITT-OUT-R-IN X555-SPLITT-OUT-R-INr LSmitll_PTLRX
X733 X555-SPLITT-OUT-R-INr X555-SPLITT-OUT-R-INdc LSmitll_SFQDC
R734 X555-SPLITT-OUT-R-INdc 0 5
X735 X555-SPLITT-OUT-R-IN PAD

X736 X556-SPLITT-OUT-R-IN X556-SPLITT-OUT-R-INr LSmitll_PTLRX
X737 X556-SPLITT-OUT-R-INr X556-SPLITT-OUT-R-INdc LSmitll_SFQDC
R738 X556-SPLITT-OUT-R-INdc 0 5
X739 X556-SPLITT-OUT-R-IN PAD

X740 X557-SPLITT-OUT-R-IN X557-SPLITT-OUT-R-INr LSmitll_PTLRX
X741 X557-SPLITT-OUT-R-INr X557-SPLITT-OUT-R-INdc LSmitll_SFQDC
R742 X557-SPLITT-OUT-R-INdc 0 5
X743 X557-SPLITT-OUT-R-IN PAD

X744 X558-SPLITT-OUT-R-IN X558-SPLITT-OUT-R-INr LSmitll_PTLRX
X745 X558-SPLITT-OUT-R-INr X558-SPLITT-OUT-R-INdc LSmitll_SFQDC
R746 X558-SPLITT-OUT-R-INdc 0 5
X747 X558-SPLITT-OUT-R-IN PAD

X748 X559-SPLITT-OUT-R-IN X559-SPLITT-OUT-R-INr LSmitll_PTLRX
X749 X559-SPLITT-OUT-R-INr X559-SPLITT-OUT-R-INdc LSmitll_SFQDC
R750 X559-SPLITT-OUT-R-INdc 0 5
X751 X559-SPLITT-OUT-R-IN PAD

X752 X560-SPLITT-OUT-R-IN X560-SPLITT-OUT-R-INr LSmitll_PTLRX
X753 X560-SPLITT-OUT-R-INr X560-SPLITT-OUT-R-INdc LSmitll_SFQDC
R754 X560-SPLITT-OUT-R-INdc 0 5
X755 X560-SPLITT-OUT-R-IN PAD

X756 X561-SPLITT-OUT-R-IN X561-SPLITT-OUT-R-INr LSmitll_PTLRX
X757 X561-SPLITT-OUT-R-INr X561-SPLITT-OUT-R-INdc LSmitll_SFQDC
R758 X561-SPLITT-OUT-R-INdc 0 5
X759 X561-SPLITT-OUT-R-IN PAD

X760 X562-SPLITT-OUT-R-IN X562-SPLITT-OUT-R-INr LSmitll_PTLRX
X761 X562-SPLITT-OUT-R-INr X562-SPLITT-OUT-R-INdc LSmitll_SFQDC
R762 X562-SPLITT-OUT-R-INdc 0 5
X763 X562-SPLITT-OUT-R-IN PAD

X764 X563-SPLITT-OUT-R-IN X563-SPLITT-OUT-R-INr LSmitll_PTLRX
X765 X563-SPLITT-OUT-R-INr X563-SPLITT-OUT-R-INdc LSmitll_SFQDC
R766 X563-SPLITT-OUT-R-INdc 0 5
X767 X563-SPLITT-OUT-R-IN PAD

X768 X564-SPLITT-OUT-R-IN X564-SPLITT-OUT-R-INr LSmitll_PTLRX
X769 X564-SPLITT-OUT-R-INr X564-SPLITT-OUT-R-INdc LSmitll_SFQDC
R770 X564-SPLITT-OUT-R-INdc 0 5
X771 X564-SPLITT-OUT-R-IN PAD

X772 X565-SPLITT-OUT-R-IN X565-SPLITT-OUT-R-INr LSmitll_PTLRX
X773 X565-SPLITT-OUT-R-INr X565-SPLITT-OUT-R-INdc LSmitll_SFQDC
R774 X565-SPLITT-OUT-R-INdc 0 5
X775 X565-SPLITT-OUT-R-IN PAD

X776 X566-SPLITT-OUT-R-IN X566-SPLITT-OUT-R-INr LSmitll_PTLRX
X777 X566-SPLITT-OUT-R-INr X566-SPLITT-OUT-R-INdc LSmitll_SFQDC
R778 X566-SPLITT-OUT-R-INdc 0 5
X779 X566-SPLITT-OUT-R-IN PAD



t784 X1-LSmitll_SPLITT-OUT-X4-LSmitll_NOTT-INt 0 X1-LSmitll_SPLITT-OUT-X4-LSmitll_NOTT-IN 0 z0=5 td=3.5ps
t785 X1-LSmitll_SPLITT-OUT-X3-LSmitll_DFFT-INt 0 X1-LSmitll_SPLITT-OUT-X3-LSmitll_DFFT-IN 0 z0=5 td=2.1ps
X1 bit7 X1-LSmitll_SPLITT-OUT-X4-LSmitll_NOTT-INt X1-LSmitll_SPLITT-OUT-X3-LSmitll_DFFT-INt LSmitll_SPLITT

t786 X2-LSmitll_SPLITT-OUT-X6-LSmitll_NOTT-INt 0 X2-LSmitll_SPLITT-OUT-X6-LSmitll_NOTT-IN 0 z0=5 td=4.6ps
t787 X2-LSmitll_SPLITT-OUT-X5-LSmitll_DFFT-INt 0 X2-LSmitll_SPLITT-OUT-X5-LSmitll_DFFT-IN 0 z0=5 td=1.9ps
X2 bit6 X2-LSmitll_SPLITT-OUT-X6-LSmitll_NOTT-INt X2-LSmitll_SPLITT-OUT-X5-LSmitll_DFFT-INt LSmitll_SPLITT

t788 X3-LSmitll_DFFT-OUT-X21-LSmitll_SPLITT-INt 0 X3-LSmitll_DFFT-OUT-X21-LSmitll_SPLITT-IN 0 z0=5 td=1.3ps
X3 X1-LSmitll_SPLITT-OUT-X3-LSmitll_DFFT-IN X452-LSmitll_SPLITT-OUT-X3-LSmitll_DFFT-IN X3-LSmitll_DFFT-OUT-X21-LSmitll_SPLITT-INt LSmitll_DFFT

t789 X4-LSmitll_NOTT-OUT-X20-LSmitll_SPLITT-INt 0 X4-LSmitll_NOTT-OUT-X20-LSmitll_SPLITT-IN 0 z0=5 td=2.0ps
X4 X1-LSmitll_SPLITT-OUT-X4-LSmitll_NOTT-IN X546-LSmitll_SPLITT-OUT-X4-LSmitll_NOTT-IN X4-LSmitll_NOTT-OUT-X20-LSmitll_SPLITT-INt LSmitll_NOTT

t790 X5-LSmitll_DFFT-OUT-X23-LSmitll_SPLITT-INt 0 X5-LSmitll_DFFT-OUT-X23-LSmitll_SPLITT-IN 0 z0=5 td=3.3ps
X5 X2-LSmitll_SPLITT-OUT-X5-LSmitll_DFFT-IN X474-LSmitll_SPLITT-OUT-X5-LSmitll_DFFT-IN X5-LSmitll_DFFT-OUT-X23-LSmitll_SPLITT-INt LSmitll_DFFT

t791 X6-LSmitll_NOTT-OUT-X22-LSmitll_SPLITT-INt 0 X6-LSmitll_NOTT-OUT-X22-LSmitll_SPLITT-IN 0 z0=5 td=1.7ps
X6 X2-LSmitll_SPLITT-OUT-X6-LSmitll_NOTT-IN X482-LSmitll_SPLITT-OUT-X6-LSmitll_NOTT-IN X6-LSmitll_NOTT-OUT-X22-LSmitll_SPLITT-INt LSmitll_NOTT

t792 X7-LSmitll_DFFT-OUT-X28-LSmitll_DFFT-INt 0 X7-LSmitll_DFFT-OUT-X28-LSmitll_DFFT-IN 0 z0=5 td=12.1ps
X7 bit5 X437-LSmitll_SPLITT-OUT-X7-LSmitll_DFFT-IN X7-LSmitll_DFFT-OUT-X28-LSmitll_DFFT-INt LSmitll_DFFT

t793 X8-LSmitll_DFFT-OUT-X29-LSmitll_DFFT-INt 0 X8-LSmitll_DFFT-OUT-X29-LSmitll_DFFT-IN 0 z0=5 td=0.9ps
X8 bit4 X434-LSmitll_SPLITT-OUT-X8-LSmitll_DFFT-IN X8-LSmitll_DFFT-OUT-X29-LSmitll_DFFT-INt LSmitll_DFFT

t794 X9-LSmitll_DFFT-OUT-X30-LSmitll_DFFT-INt 0 X9-LSmitll_DFFT-OUT-X30-LSmitll_DFFT-IN 0 z0=5 td=0.9ps
X9 bit3 X433-LSmitll_SPLITT-OUT-X9-LSmitll_DFFT-IN X9-LSmitll_DFFT-OUT-X30-LSmitll_DFFT-INt LSmitll_DFFT

t795 X10-LSmitll_DFFT-OUT-X31-LSmitll_DFFT-INt 0 X10-LSmitll_DFFT-OUT-X31-LSmitll_DFFT-IN 0 z0=5 td=4.0ps
X10 bit2 X459-LSmitll_SPLITT-OUT-X10-LSmitll_DFFT-IN X10-LSmitll_DFFT-OUT-X31-LSmitll_DFFT-INt LSmitll_DFFT

t796 X11-LSmitll_DFFT-OUT-X32-LSmitll_DFFT-INt 0 X11-LSmitll_DFFT-OUT-X32-LSmitll_DFFT-IN 0 z0=5 td=2.8ps
X11 bit1 X467-LSmitll_SPLITT-OUT-X11-LSmitll_DFFT-IN X11-LSmitll_DFFT-OUT-X32-LSmitll_DFFT-INt LSmitll_DFFT

t797 X12-LSmitll_SPLITT-OUT-X19-LSmitll_XORT-INt 0 X12-LSmitll_SPLITT-OUT-X19-LSmitll_XORT-IN 0 z0=5 td=2.3ps
t798 X12-LSmitll_SPLITT-OUT-X15-LSmitll_DFFT-INt 0 X12-LSmitll_SPLITT-OUT-X15-LSmitll_DFFT-IN 0 z0=5 td=1.0ps
X12 overflow X12-LSmitll_SPLITT-OUT-X19-LSmitll_XORT-INt X12-LSmitll_SPLITT-OUT-X15-LSmitll_DFFT-INt LSmitll_SPLITT

t799 X13-LSmitll_SPLITT-OUT-X17-LSmitll_NOTT-INt 0 X13-LSmitll_SPLITT-OUT-X17-LSmitll_NOTT-IN 0 z0=5 td=3.3ps
t800 X13-LSmitll_SPLITT-OUT-X16-LSmitll_DFFT-INt 0 X13-LSmitll_SPLITT-OUT-X16-LSmitll_DFFT-IN 0 z0=5 td=1.0ps
X13 zero X13-LSmitll_SPLITT-OUT-X17-LSmitll_NOTT-INt X13-LSmitll_SPLITT-OUT-X16-LSmitll_DFFT-INt LSmitll_SPLITT

t801 X14-LSmitll_SPLITT-OUT-X19-LSmitll_XORT-INt 0 X14-LSmitll_SPLITT-OUT-X19-LSmitll_XORT-IN 0 z0=5 td=4.0ps
t802 X14-LSmitll_SPLITT-OUT-X18-LSmitll_DFFT-INt 0 X14-LSmitll_SPLITT-OUT-X18-LSmitll_DFFT-IN 0 z0=5 td=1.9ps
X14 neg X14-LSmitll_SPLITT-OUT-X19-LSmitll_XORT-INt X14-LSmitll_SPLITT-OUT-X18-LSmitll_DFFT-INt LSmitll_SPLITT

t803 X15-LSmitll_DFFT-OUT-X35-LSmitll_XORT-INt 0 X15-LSmitll_DFFT-OUT-X35-LSmitll_XORT-IN 0 z0=5 td=1.3ps
X15 X12-LSmitll_SPLITT-OUT-X15-LSmitll_DFFT-IN X430-LSmitll_SPLITT-OUT-X15-LSmitll_DFFT-IN X15-LSmitll_DFFT-OUT-X35-LSmitll_XORT-INt LSmitll_DFFT

t804 X16-LSmitll_DFFT-OUT-X33-LSmitll_DFFT-INt 0 X16-LSmitll_DFFT-OUT-X33-LSmitll_DFFT-IN 0 z0=5 td=26.7ps
X16 X13-LSmitll_SPLITT-OUT-X16-LSmitll_DFFT-IN X438-LSmitll_SPLITT-OUT-X16-LSmitll_DFFT-IN X16-LSmitll_DFFT-OUT-X33-LSmitll_DFFT-INt LSmitll_DFFT

t805 X17-LSmitll_NOTT-OUT-X34-LSmitll_DFFT-INt 0 X17-LSmitll_NOTT-OUT-X34-LSmitll_DFFT-IN 0 z0=5 td=2.3ps
X17 X13-LSmitll_SPLITT-OUT-X17-LSmitll_NOTT-IN X460-LSmitll_SPLITT-OUT-X17-LSmitll_NOTT-IN X17-LSmitll_NOTT-OUT-X34-LSmitll_DFFT-INt LSmitll_NOTT

t806 X18-LSmitll_DFFT-OUT-X35-LSmitll_XORT-INt 0 X18-LSmitll_DFFT-OUT-X35-LSmitll_XORT-IN 0 z0=5 td=2.3ps
X18 X14-LSmitll_SPLITT-OUT-X18-LSmitll_DFFT-IN X349-LSmitll_SPLITT-OUT-X18-LSmitll_DFFT-IN X18-LSmitll_DFFT-OUT-X35-LSmitll_XORT-INt LSmitll_DFFT

t807 X19-LSmitll_XORT-OUT-X36-LSmitll_NOTT-INt 0 X19-LSmitll_XORT-OUT-X36-LSmitll_NOTT-IN 0 z0=5 td=3.9ps
X19 X12-LSmitll_SPLITT-OUT-X19-LSmitll_XORT-IN X14-LSmitll_SPLITT-OUT-X19-LSmitll_XORT-IN X431-LSmitll_SPLITT-OUT-X19-LSmitll_XORT-IN X19-LSmitll_XORT-OUT-X36-LSmitll_NOTT-INt LSmitll_XORT

t808 X20-LSmitll_SPLITT-OUT-X25-LSmitll_AND2T-INt 0 X20-LSmitll_SPLITT-OUT-X25-LSmitll_AND2T-IN 0 z0=5 td=4.3ps
t809 X20-LSmitll_SPLITT-OUT-X24-LSmitll_AND2T-INt 0 X20-LSmitll_SPLITT-OUT-X24-LSmitll_AND2T-IN 0 z0=5 td=1.0ps
X20 X4-LSmitll_NOTT-OUT-X20-LSmitll_SPLITT-IN X20-LSmitll_SPLITT-OUT-X25-LSmitll_AND2T-INt X20-LSmitll_SPLITT-OUT-X24-LSmitll_AND2T-INt LSmitll_SPLITT

t810 X21-LSmitll_SPLITT-OUT-X27-LSmitll_AND2T-INt 0 X21-LSmitll_SPLITT-OUT-X27-LSmitll_AND2T-IN 0 z0=5 td=2.1ps
t811 X21-LSmitll_SPLITT-OUT-X26-LSmitll_AND2T-INt 0 X21-LSmitll_SPLITT-OUT-X26-LSmitll_AND2T-IN 0 z0=5 td=3.9ps
X21 X3-LSmitll_DFFT-OUT-X21-LSmitll_SPLITT-IN X21-LSmitll_SPLITT-OUT-X27-LSmitll_AND2T-INt X21-LSmitll_SPLITT-OUT-X26-LSmitll_AND2T-INt LSmitll_SPLITT

t812 X22-LSmitll_SPLITT-OUT-X26-LSmitll_AND2T-INt 0 X22-LSmitll_SPLITT-OUT-X26-LSmitll_AND2T-IN 0 z0=5 td=5.4ps
t813 X22-LSmitll_SPLITT-OUT-X24-LSmitll_AND2T-INt 0 X22-LSmitll_SPLITT-OUT-X24-LSmitll_AND2T-IN 0 z0=5 td=1.8ps
X22 X6-LSmitll_NOTT-OUT-X22-LSmitll_SPLITT-IN X22-LSmitll_SPLITT-OUT-X26-LSmitll_AND2T-INt X22-LSmitll_SPLITT-OUT-X24-LSmitll_AND2T-INt LSmitll_SPLITT

t814 X23-LSmitll_SPLITT-OUT-X27-LSmitll_AND2T-INt 0 X23-LSmitll_SPLITT-OUT-X27-LSmitll_AND2T-IN 0 z0=5 td=3.9ps
t815 X23-LSmitll_SPLITT-OUT-X25-LSmitll_AND2T-INt 0 X23-LSmitll_SPLITT-OUT-X25-LSmitll_AND2T-IN 0 z0=5 td=1.8ps
X23 X5-LSmitll_DFFT-OUT-X23-LSmitll_SPLITT-IN X23-LSmitll_SPLITT-OUT-X27-LSmitll_AND2T-INt X23-LSmitll_SPLITT-OUT-X25-LSmitll_AND2T-INt LSmitll_SPLITT

t816 X24-LSmitll_AND2T-OUT-X68-LSmitll_DFFT-INt 0 X24-LSmitll_AND2T-OUT-X68-LSmitll_DFFT-IN 0 z0=5 td=29.5ps
X24 X20-LSmitll_SPLITT-OUT-X24-LSmitll_AND2T-IN X22-LSmitll_SPLITT-OUT-X24-LSmitll_AND2T-IN X482-LSmitll_SPLITT-OUT-X24-LSmitll_AND2T-IN X24-LSmitll_AND2T-OUT-X68-LSmitll_DFFT-INt LSmitll_AND2T

t817 X25-LSmitll_AND2T-OUT-X43-LSmitll_SPLITT-INt 0 X25-LSmitll_AND2T-OUT-X43-LSmitll_SPLITT-IN 0 z0=5 td=20.3ps
X25 X20-LSmitll_SPLITT-OUT-X25-LSmitll_AND2T-IN X23-LSmitll_SPLITT-OUT-X25-LSmitll_AND2T-IN X547-LSmitll_SPLITT-OUT-X25-LSmitll_AND2T-IN X25-LSmitll_AND2T-OUT-X43-LSmitll_SPLITT-INt LSmitll_AND2T

t818 X26-LSmitll_AND2T-OUT-X44-LSmitll_SPLITT-INt 0 X26-LSmitll_AND2T-OUT-X44-LSmitll_SPLITT-IN 0 z0=5 td=4.3ps
X26 X22-LSmitll_SPLITT-OUT-X26-LSmitll_AND2T-IN X21-LSmitll_SPLITT-OUT-X26-LSmitll_AND2T-IN X476-LSmitll_SPLITT-OUT-X26-LSmitll_AND2T-IN X26-LSmitll_AND2T-OUT-X44-LSmitll_SPLITT-INt LSmitll_AND2T

t819 X27-LSmitll_AND2T-OUT-X40-LSmitll_SPLITT-INt 0 X27-LSmitll_AND2T-OUT-X40-LSmitll_SPLITT-IN 0 z0=5 td=11.6ps
X27 X21-LSmitll_SPLITT-OUT-X27-LSmitll_AND2T-IN X23-LSmitll_SPLITT-OUT-X27-LSmitll_AND2T-IN X454-LSmitll_SPLITT-OUT-X27-LSmitll_AND2T-IN X27-LSmitll_AND2T-OUT-X40-LSmitll_SPLITT-INt LSmitll_AND2T

t820 X28-LSmitll_DFFT-OUT-X45-LSmitll_SPLITT-INt 0 X28-LSmitll_DFFT-OUT-X45-LSmitll_SPLITT-IN 0 z0=5 td=8.4ps
X28 X7-LSmitll_DFFT-OUT-X28-LSmitll_DFFT-IN X345-LSmitll_SPLITT-OUT-X28-LSmitll_DFFT-IN X28-LSmitll_DFFT-OUT-X45-LSmitll_SPLITT-INt LSmitll_DFFT

t821 X29-LSmitll_DFFT-OUT-X48-LSmitll_SPLITT-INt 0 X29-LSmitll_DFFT-OUT-X48-LSmitll_SPLITT-IN 0 z0=5 td=12.3ps
X29 X8-LSmitll_DFFT-OUT-X29-LSmitll_DFFT-IN X433-LSmitll_SPLITT-OUT-X29-LSmitll_DFFT-IN X29-LSmitll_DFFT-OUT-X48-LSmitll_SPLITT-INt LSmitll_DFFT

t822 X30-LSmitll_DFFT-OUT-X51-LSmitll_SPLITT-INt 0 X30-LSmitll_DFFT-OUT-X51-LSmitll_SPLITT-IN 0 z0=5 td=6.1ps
X30 X9-LSmitll_DFFT-OUT-X30-LSmitll_DFFT-IN X548-LSmitll_SPLITT-OUT-X30-LSmitll_DFFT-IN X30-LSmitll_DFFT-OUT-X51-LSmitll_SPLITT-INt LSmitll_DFFT

t823 X31-LSmitll_DFFT-OUT-X52-LSmitll_SPLITT-INt 0 X31-LSmitll_DFFT-OUT-X52-LSmitll_SPLITT-IN 0 z0=5 td=1.3ps
X31 X10-LSmitll_DFFT-OUT-X31-LSmitll_DFFT-IN X438-LSmitll_SPLITT-OUT-X31-LSmitll_DFFT-IN X31-LSmitll_DFFT-OUT-X52-LSmitll_SPLITT-INt LSmitll_DFFT

t824 X32-LSmitll_DFFT-OUT-X57-LSmitll_SPLITT-INt 0 X32-LSmitll_DFFT-OUT-X57-LSmitll_SPLITT-IN 0 z0=5 td=1.3ps
X32 X11-LSmitll_DFFT-OUT-X32-LSmitll_DFFT-IN X467-LSmitll_SPLITT-OUT-X32-LSmitll_DFFT-IN X32-LSmitll_DFFT-OUT-X57-LSmitll_SPLITT-INt LSmitll_DFFT

t825 X33-LSmitll_DFFT-OUT-X37-LSmitll_SPLITT-INt 0 X33-LSmitll_DFFT-OUT-X37-LSmitll_SPLITT-IN 0 z0=5 td=5.4ps
X33 X16-LSmitll_DFFT-OUT-X33-LSmitll_DFFT-IN X320-LSmitll_SPLITT-OUT-X33-LSmitll_DFFT-IN X33-LSmitll_DFFT-OUT-X37-LSmitll_SPLITT-INt LSmitll_DFFT

t826 X34-LSmitll_DFFT-OUT-X90-LSmitll_AND2T-INt 0 X34-LSmitll_DFFT-OUT-X90-LSmitll_AND2T-IN 0 z0=5 td=22.3ps
X34 X17-LSmitll_NOTT-OUT-X34-LSmitll_DFFT-IN X466-LSmitll_SPLITT-OUT-X34-LSmitll_DFFT-IN X34-LSmitll_DFFT-OUT-X90-LSmitll_AND2T-INt LSmitll_DFFT

t827 X35-LSmitll_XORT-OUT-X39-LSmitll_SPLITT-INt 0 X35-LSmitll_XORT-OUT-X39-LSmitll_SPLITT-IN 0 z0=5 td=20.5ps
X35 X15-LSmitll_DFFT-OUT-X35-LSmitll_XORT-IN X18-LSmitll_DFFT-OUT-X35-LSmitll_XORT-IN X350-LSmitll_SPLITT-OUT-X35-LSmitll_XORT-IN X35-LSmitll_XORT-OUT-X39-LSmitll_SPLITT-INt LSmitll_XORT

t828 X36-LSmitll_NOTT-OUT-X38-LSmitll_SPLITT-INt 0 X36-LSmitll_NOTT-OUT-X38-LSmitll_SPLITT-IN 0 z0=5 td=2.2ps
X36 X19-LSmitll_XORT-OUT-X36-LSmitll_NOTT-IN X437-LSmitll_SPLITT-OUT-X36-LSmitll_NOTT-IN X36-LSmitll_NOTT-OUT-X38-LSmitll_SPLITT-INt LSmitll_NOTT

t829 X37-LSmitll_SPLITT-OUT-X93-LSmitll_OR2T-INt 0 X37-LSmitll_SPLITT-OUT-X93-LSmitll_OR2T-IN 0 z0=5 td=1.7ps
t830 X37-LSmitll_SPLITT-OUT-X89-LSmitll_DFFT-INt 0 X37-LSmitll_SPLITT-OUT-X89-LSmitll_DFFT-IN 0 z0=5 td=2.6ps
X37 X33-LSmitll_DFFT-OUT-X37-LSmitll_SPLITT-IN X37-LSmitll_SPLITT-OUT-X93-LSmitll_OR2T-INt X37-LSmitll_SPLITT-OUT-X89-LSmitll_DFFT-INt LSmitll_SPLITT

t831 X38-LSmitll_SPLITT-OUT-X92-LSmitll_DFFT-INt 0 X38-LSmitll_SPLITT-OUT-X92-LSmitll_DFFT-IN 0 z0=5 td=2.5ps
t832 X38-LSmitll_SPLITT-OUT-X90-LSmitll_AND2T-INt 0 X38-LSmitll_SPLITT-OUT-X90-LSmitll_AND2T-IN 0 z0=5 td=3.5ps
X38 X36-LSmitll_NOTT-OUT-X38-LSmitll_SPLITT-IN X38-LSmitll_SPLITT-OUT-X92-LSmitll_DFFT-INt X38-LSmitll_SPLITT-OUT-X90-LSmitll_AND2T-INt LSmitll_SPLITT

t833 X39-LSmitll_SPLITT-OUT-X93-LSmitll_OR2T-INt 0 X39-LSmitll_SPLITT-OUT-X93-LSmitll_OR2T-IN 0 z0=5 td=1.8ps
t834 X39-LSmitll_SPLITT-OUT-X91-LSmitll_DFFT-INt 0 X39-LSmitll_SPLITT-OUT-X91-LSmitll_DFFT-IN 0 z0=5 td=1.9ps
X39 X35-LSmitll_XORT-OUT-X39-LSmitll_SPLITT-IN X39-LSmitll_SPLITT-OUT-X93-LSmitll_OR2T-INt X39-LSmitll_SPLITT-OUT-X91-LSmitll_DFFT-INt LSmitll_SPLITT

t835 X40-LSmitll_SPLITT-OUT-X42-LSmitll_SPLITT-INt 0 X40-LSmitll_SPLITT-OUT-X42-LSmitll_SPLITT-IN 0 z0=5 td=4.3ps
t836 X40-LSmitll_SPLITT-OUT-X41-LSmitll_SPLITT-INt 0 X40-LSmitll_SPLITT-OUT-X41-LSmitll_SPLITT-IN 0 z0=5 td=2.9ps
X40 X27-LSmitll_AND2T-OUT-X40-LSmitll_SPLITT-IN X40-LSmitll_SPLITT-OUT-X42-LSmitll_SPLITT-INt X40-LSmitll_SPLITT-OUT-X41-LSmitll_SPLITT-INt LSmitll_SPLITT

t837 X41-LSmitll_SPLITT-OUT-X61-LSmitll_DFFT-INt 0 X41-LSmitll_SPLITT-OUT-X61-LSmitll_DFFT-IN 0 z0=5 td=1.5ps
t838 X41-LSmitll_SPLITT-OUT-X60-LSmitll_DFFT-INt 0 X41-LSmitll_SPLITT-OUT-X60-LSmitll_DFFT-IN 0 z0=5 td=2.6ps
X41 X40-LSmitll_SPLITT-OUT-X41-LSmitll_SPLITT-IN X41-LSmitll_SPLITT-OUT-X61-LSmitll_DFFT-INt X41-LSmitll_SPLITT-OUT-X60-LSmitll_DFFT-INt LSmitll_SPLITT

t839 X42-LSmitll_SPLITT-OUT-X63-LSmitll_DFFT-INt 0 X42-LSmitll_SPLITT-OUT-X63-LSmitll_DFFT-IN 0 z0=5 td=2.2ps
t840 X42-LSmitll_SPLITT-OUT-X62-LSmitll_DFFT-INt 0 X42-LSmitll_SPLITT-OUT-X62-LSmitll_DFFT-IN 0 z0=5 td=5.6ps
X42 X40-LSmitll_SPLITT-OUT-X42-LSmitll_SPLITT-IN X42-LSmitll_SPLITT-OUT-X63-LSmitll_DFFT-INt X42-LSmitll_SPLITT-OUT-X62-LSmitll_DFFT-INt LSmitll_SPLITT

t841 X43-LSmitll_SPLITT-OUT-X65-LSmitll_DFFT-INt 0 X43-LSmitll_SPLITT-OUT-X65-LSmitll_DFFT-IN 0 z0=5 td=2.6ps
t842 X43-LSmitll_SPLITT-OUT-X64-LSmitll_DFFT-INt 0 X43-LSmitll_SPLITT-OUT-X64-LSmitll_DFFT-IN 0 z0=5 td=4.8ps
X43 X25-LSmitll_AND2T-OUT-X43-LSmitll_SPLITT-IN X43-LSmitll_SPLITT-OUT-X65-LSmitll_DFFT-INt X43-LSmitll_SPLITT-OUT-X64-LSmitll_DFFT-INt LSmitll_SPLITT

t843 X44-LSmitll_SPLITT-OUT-X67-LSmitll_DFFT-INt 0 X44-LSmitll_SPLITT-OUT-X67-LSmitll_DFFT-IN 0 z0=5 td=5.1ps
t844 X44-LSmitll_SPLITT-OUT-X66-LSmitll_DFFT-INt 0 X44-LSmitll_SPLITT-OUT-X66-LSmitll_DFFT-IN 0 z0=5 td=4.0ps
X44 X26-LSmitll_AND2T-OUT-X44-LSmitll_SPLITT-IN X44-LSmitll_SPLITT-OUT-X67-LSmitll_DFFT-INt X44-LSmitll_SPLITT-OUT-X66-LSmitll_DFFT-INt LSmitll_SPLITT

t845 X45-LSmitll_SPLITT-OUT-X47-LSmitll_SPLITT-INt 0 X45-LSmitll_SPLITT-OUT-X47-LSmitll_SPLITT-IN 0 z0=5 td=1.7ps
t846 X45-LSmitll_SPLITT-OUT-X46-LSmitll_SPLITT-INt 0 X45-LSmitll_SPLITT-OUT-X46-LSmitll_SPLITT-IN 0 z0=5 td=2.0ps
X45 X28-LSmitll_DFFT-OUT-X45-LSmitll_SPLITT-IN X45-LSmitll_SPLITT-OUT-X47-LSmitll_SPLITT-INt X45-LSmitll_SPLITT-OUT-X46-LSmitll_SPLITT-INt LSmitll_SPLITT

t847 X46-LSmitll_SPLITT-OUT-X70-LSmitll_DFFT-INt 0 X46-LSmitll_SPLITT-OUT-X70-LSmitll_DFFT-IN 0 z0=5 td=6.0ps
t848 X46-LSmitll_SPLITT-OUT-X69-LSmitll_NOTT-INt 0 X46-LSmitll_SPLITT-OUT-X69-LSmitll_NOTT-IN 0 z0=5 td=2.1ps
X46 X45-LSmitll_SPLITT-OUT-X46-LSmitll_SPLITT-IN X46-LSmitll_SPLITT-OUT-X70-LSmitll_DFFT-INt X46-LSmitll_SPLITT-OUT-X69-LSmitll_NOTT-INt LSmitll_SPLITT

t849 X47-LSmitll_SPLITT-OUT-X72-LSmitll_DFFT-INt 0 X47-LSmitll_SPLITT-OUT-X72-LSmitll_DFFT-IN 0 z0=5 td=3.9ps
t850 X47-LSmitll_SPLITT-OUT-X71-LSmitll_DFFT-INt 0 X47-LSmitll_SPLITT-OUT-X71-LSmitll_DFFT-IN 0 z0=5 td=6.4ps
X47 X45-LSmitll_SPLITT-OUT-X47-LSmitll_SPLITT-IN X47-LSmitll_SPLITT-OUT-X72-LSmitll_DFFT-INt X47-LSmitll_SPLITT-OUT-X71-LSmitll_DFFT-INt LSmitll_SPLITT

t851 X48-LSmitll_SPLITT-OUT-X50-LSmitll_SPLITT-INt 0 X48-LSmitll_SPLITT-OUT-X50-LSmitll_SPLITT-IN 0 z0=5 td=2.7ps
t852 X48-LSmitll_SPLITT-OUT-X49-LSmitll_SPLITT-INt 0 X48-LSmitll_SPLITT-OUT-X49-LSmitll_SPLITT-IN 0 z0=5 td=1.4ps
X48 X29-LSmitll_DFFT-OUT-X48-LSmitll_SPLITT-IN X48-LSmitll_SPLITT-OUT-X50-LSmitll_SPLITT-INt X48-LSmitll_SPLITT-OUT-X49-LSmitll_SPLITT-INt LSmitll_SPLITT

t853 X49-LSmitll_SPLITT-OUT-X74-LSmitll_DFFT-INt 0 X49-LSmitll_SPLITT-OUT-X74-LSmitll_DFFT-IN 0 z0=5 td=1.2ps
t854 X49-LSmitll_SPLITT-OUT-X73-LSmitll_DFFT-INt 0 X49-LSmitll_SPLITT-OUT-X73-LSmitll_DFFT-IN 0 z0=5 td=7.0ps
X49 X48-LSmitll_SPLITT-OUT-X49-LSmitll_SPLITT-IN X49-LSmitll_SPLITT-OUT-X74-LSmitll_DFFT-INt X49-LSmitll_SPLITT-OUT-X73-LSmitll_DFFT-INt LSmitll_SPLITT

t855 X50-LSmitll_SPLITT-OUT-X76-LSmitll_DFFT-INt 0 X50-LSmitll_SPLITT-OUT-X76-LSmitll_DFFT-IN 0 z0=5 td=4.4ps
t856 X50-LSmitll_SPLITT-OUT-X75-LSmitll_DFFT-INt 0 X50-LSmitll_SPLITT-OUT-X75-LSmitll_DFFT-IN 0 z0=5 td=1.0ps
X50 X48-LSmitll_SPLITT-OUT-X50-LSmitll_SPLITT-IN X50-LSmitll_SPLITT-OUT-X76-LSmitll_DFFT-INt X50-LSmitll_SPLITT-OUT-X75-LSmitll_DFFT-INt LSmitll_SPLITT

t857 X51-LSmitll_SPLITT-OUT-X55-LSmitll_SPLITT-INt 0 X51-LSmitll_SPLITT-OUT-X55-LSmitll_SPLITT-IN 0 z0=5 td=3.2ps
t858 X51-LSmitll_SPLITT-OUT-X53-LSmitll_SPLITT-INt 0 X51-LSmitll_SPLITT-OUT-X53-LSmitll_SPLITT-IN 0 z0=5 td=3.8ps
X51 X30-LSmitll_DFFT-OUT-X51-LSmitll_SPLITT-IN X51-LSmitll_SPLITT-OUT-X55-LSmitll_SPLITT-INt X51-LSmitll_SPLITT-OUT-X53-LSmitll_SPLITT-INt LSmitll_SPLITT

t859 X52-LSmitll_SPLITT-OUT-X56-LSmitll_SPLITT-INt 0 X52-LSmitll_SPLITT-OUT-X56-LSmitll_SPLITT-IN 0 z0=5 td=1.6ps
t860 X52-LSmitll_SPLITT-OUT-X54-LSmitll_SPLITT-INt 0 X52-LSmitll_SPLITT-OUT-X54-LSmitll_SPLITT-IN 0 z0=5 td=2.9ps
X52 X31-LSmitll_DFFT-OUT-X52-LSmitll_SPLITT-IN X52-LSmitll_SPLITT-OUT-X56-LSmitll_SPLITT-INt X52-LSmitll_SPLITT-OUT-X54-LSmitll_SPLITT-INt LSmitll_SPLITT

t861 X53-LSmitll_SPLITT-OUT-X78-LSmitll_DFFT-INt 0 X53-LSmitll_SPLITT-OUT-X78-LSmitll_DFFT-IN 0 z0=5 td=1.2ps
t862 X53-LSmitll_SPLITT-OUT-X77-LSmitll_DFFT-INt 0 X53-LSmitll_SPLITT-OUT-X77-LSmitll_DFFT-IN 0 z0=5 td=1.9ps
X53 X51-LSmitll_SPLITT-OUT-X53-LSmitll_SPLITT-IN X53-LSmitll_SPLITT-OUT-X78-LSmitll_DFFT-INt X53-LSmitll_SPLITT-OUT-X77-LSmitll_DFFT-INt LSmitll_SPLITT

t863 X54-LSmitll_SPLITT-OUT-X82-LSmitll_DFFT-INt 0 X54-LSmitll_SPLITT-OUT-X82-LSmitll_DFFT-IN 0 z0=5 td=1.2ps
t864 X54-LSmitll_SPLITT-OUT-X81-LSmitll_DFFT-INt 0 X54-LSmitll_SPLITT-OUT-X81-LSmitll_DFFT-IN 0 z0=5 td=4.7ps
X54 X52-LSmitll_SPLITT-OUT-X54-LSmitll_SPLITT-IN X54-LSmitll_SPLITT-OUT-X82-LSmitll_DFFT-INt X54-LSmitll_SPLITT-OUT-X81-LSmitll_DFFT-INt LSmitll_SPLITT

t865 X55-LSmitll_SPLITT-OUT-X80-LSmitll_NOTT-INt 0 X55-LSmitll_SPLITT-OUT-X80-LSmitll_NOTT-IN 0 z0=5 td=4.2ps
t866 X55-LSmitll_SPLITT-OUT-X79-LSmitll_DFFT-INt 0 X55-LSmitll_SPLITT-OUT-X79-LSmitll_DFFT-IN 0 z0=5 td=1.0ps
X55 X51-LSmitll_SPLITT-OUT-X55-LSmitll_SPLITT-IN X55-LSmitll_SPLITT-OUT-X80-LSmitll_NOTT-INt X55-LSmitll_SPLITT-OUT-X79-LSmitll_DFFT-INt LSmitll_SPLITT

t867 X56-LSmitll_SPLITT-OUT-X84-LSmitll_NOTT-INt 0 X56-LSmitll_SPLITT-OUT-X84-LSmitll_NOTT-IN 0 z0=5 td=1.2ps
t868 X56-LSmitll_SPLITT-OUT-X83-LSmitll_DFFT-INt 0 X56-LSmitll_SPLITT-OUT-X83-LSmitll_DFFT-IN 0 z0=5 td=2.6ps
X56 X52-LSmitll_SPLITT-OUT-X56-LSmitll_SPLITT-IN X56-LSmitll_SPLITT-OUT-X84-LSmitll_NOTT-INt X56-LSmitll_SPLITT-OUT-X83-LSmitll_DFFT-INt LSmitll_SPLITT

t869 X57-LSmitll_SPLITT-OUT-X59-LSmitll_SPLITT-INt 0 X57-LSmitll_SPLITT-OUT-X59-LSmitll_SPLITT-IN 0 z0=5 td=1.6ps
t870 X57-LSmitll_SPLITT-OUT-X58-LSmitll_SPLITT-INt 0 X57-LSmitll_SPLITT-OUT-X58-LSmitll_SPLITT-IN 0 z0=5 td=2.0ps
X57 X32-LSmitll_DFFT-OUT-X57-LSmitll_SPLITT-IN X57-LSmitll_SPLITT-OUT-X59-LSmitll_SPLITT-INt X57-LSmitll_SPLITT-OUT-X58-LSmitll_SPLITT-INt LSmitll_SPLITT

t871 X58-LSmitll_SPLITT-OUT-X86-LSmitll_DFFT-INt 0 X58-LSmitll_SPLITT-OUT-X86-LSmitll_DFFT-IN 0 z0=5 td=1.2ps
t872 X58-LSmitll_SPLITT-OUT-X85-LSmitll_DFFT-INt 0 X58-LSmitll_SPLITT-OUT-X85-LSmitll_DFFT-IN 0 z0=5 td=4.2ps
X58 X57-LSmitll_SPLITT-OUT-X58-LSmitll_SPLITT-IN X58-LSmitll_SPLITT-OUT-X86-LSmitll_DFFT-INt X58-LSmitll_SPLITT-OUT-X85-LSmitll_DFFT-INt LSmitll_SPLITT

t873 X59-LSmitll_SPLITT-OUT-X88-LSmitll_NOTT-INt 0 X59-LSmitll_SPLITT-OUT-X88-LSmitll_NOTT-IN 0 z0=5 td=1.2ps
t874 X59-LSmitll_SPLITT-OUT-X87-LSmitll_DFFT-INt 0 X59-LSmitll_SPLITT-OUT-X87-LSmitll_DFFT-IN 0 z0=5 td=2.6ps
X59 X57-LSmitll_SPLITT-OUT-X59-LSmitll_SPLITT-IN X59-LSmitll_SPLITT-OUT-X88-LSmitll_NOTT-INt X59-LSmitll_SPLITT-OUT-X87-LSmitll_DFFT-INt LSmitll_SPLITT

t875 X60-LSmitll_DFFT-OUT-X104-LSmitll_SPLITT-INt 0 X60-LSmitll_DFFT-OUT-X104-LSmitll_SPLITT-IN 0 z0=5 td=1.3ps
X60 X41-LSmitll_SPLITT-OUT-X60-LSmitll_DFFT-IN X447-LSmitll_SPLITT-OUT-X60-LSmitll_DFFT-IN X60-LSmitll_DFFT-OUT-X104-LSmitll_SPLITT-INt LSmitll_DFFT

t876 X61-LSmitll_DFFT-OUT-X105-LSmitll_SPLITT-INt 0 X61-LSmitll_DFFT-OUT-X105-LSmitll_SPLITT-IN 0 z0=5 td=6.2ps
X61 X41-LSmitll_SPLITT-OUT-X61-LSmitll_DFFT-IN X448-LSmitll_SPLITT-OUT-X61-LSmitll_DFFT-IN X61-LSmitll_DFFT-OUT-X105-LSmitll_SPLITT-INt LSmitll_DFFT

t877 X62-LSmitll_DFFT-OUT-X106-LSmitll_SPLITT-INt 0 X62-LSmitll_DFFT-OUT-X106-LSmitll_SPLITT-IN 0 z0=5 td=1.3ps
X62 X42-LSmitll_SPLITT-OUT-X62-LSmitll_DFFT-IN X359-LSmitll_SPLITT-OUT-X62-LSmitll_DFFT-IN X62-LSmitll_DFFT-OUT-X106-LSmitll_SPLITT-INt LSmitll_DFFT

t878 X63-LSmitll_DFFT-OUT-X107-LSmitll_SPLITT-INt 0 X63-LSmitll_DFFT-OUT-X107-LSmitll_SPLITT-IN 0 z0=5 td=9.9ps
X63 X42-LSmitll_SPLITT-OUT-X63-LSmitll_DFFT-IN X407-LSmitll_SPLITT-OUT-X63-LSmitll_DFFT-IN X63-LSmitll_DFFT-OUT-X107-LSmitll_SPLITT-INt LSmitll_DFFT

t879 X64-LSmitll_DFFT-OUT-X99-LSmitll_SPLITT-INt 0 X64-LSmitll_DFFT-OUT-X99-LSmitll_SPLITT-IN 0 z0=5 td=4.6ps
X64 X43-LSmitll_SPLITT-OUT-X64-LSmitll_DFFT-IN X401-LSmitll_SPLITT-OUT-X64-LSmitll_DFFT-IN X64-LSmitll_DFFT-OUT-X99-LSmitll_SPLITT-INt LSmitll_DFFT

t880 X65-LSmitll_DFFT-OUT-X102-LSmitll_SPLITT-INt 0 X65-LSmitll_DFFT-OUT-X102-LSmitll_SPLITT-IN 0 z0=5 td=3.3ps
X65 X43-LSmitll_SPLITT-OUT-X65-LSmitll_DFFT-IN X495-LSmitll_SPLITT-OUT-X65-LSmitll_DFFT-IN X65-LSmitll_DFFT-OUT-X102-LSmitll_SPLITT-INt LSmitll_DFFT

t881 X66-LSmitll_DFFT-OUT-X94-LSmitll_SPLITT-INt 0 X66-LSmitll_DFFT-OUT-X94-LSmitll_SPLITT-IN 0 z0=5 td=3.8ps
X66 X44-LSmitll_SPLITT-OUT-X66-LSmitll_DFFT-IN X451-LSmitll_SPLITT-OUT-X66-LSmitll_DFFT-IN X66-LSmitll_DFFT-OUT-X94-LSmitll_SPLITT-INt LSmitll_DFFT

t882 X67-LSmitll_DFFT-OUT-X97-LSmitll_SPLITT-INt 0 X67-LSmitll_DFFT-OUT-X97-LSmitll_SPLITT-IN 0 z0=5 td=10.3ps
X67 X44-LSmitll_SPLITT-OUT-X67-LSmitll_DFFT-IN X492-LSmitll_SPLITT-OUT-X67-LSmitll_DFFT-IN X67-LSmitll_DFFT-OUT-X97-LSmitll_SPLITT-INt LSmitll_DFFT

t883 X68-LSmitll_DFFT-OUT-X115-LSmitll_DFFT-INt 0 X68-LSmitll_DFFT-OUT-X115-LSmitll_DFFT-IN 0 z0=5 td=2.0ps
X68 X24-LSmitll_AND2T-OUT-X68-LSmitll_DFFT-IN X549-LSmitll_SPLITT-OUT-X68-LSmitll_DFFT-IN X68-LSmitll_DFFT-OUT-X115-LSmitll_DFFT-INt LSmitll_DFFT

t884 X69-LSmitll_NOTT-OUT-X109-LSmitll_SPLITT-INt 0 X69-LSmitll_NOTT-OUT-X109-LSmitll_SPLITT-IN 0 z0=5 td=4.4ps
X69 X46-LSmitll_SPLITT-OUT-X69-LSmitll_NOTT-IN X357-LSmitll_SPLITT-OUT-X69-LSmitll_NOTT-IN X69-LSmitll_NOTT-OUT-X109-LSmitll_SPLITT-INt LSmitll_NOTT

t885 X70-LSmitll_DFFT-OUT-X110-LSmitll_SPLITT-INt 0 X70-LSmitll_DFFT-OUT-X110-LSmitll_SPLITT-IN 0 z0=5 td=20.6ps
X70 X46-LSmitll_SPLITT-OUT-X70-LSmitll_DFFT-IN X362-LSmitll_SPLITT-OUT-X70-LSmitll_DFFT-IN X70-LSmitll_DFFT-OUT-X110-LSmitll_SPLITT-INt LSmitll_DFFT

t886 X71-LSmitll_DFFT-OUT-X135-LSmitll_OR2T-INt 0 X71-LSmitll_DFFT-OUT-X135-LSmitll_OR2T-IN 0 z0=5 td=0.9ps
X71 X47-LSmitll_SPLITT-OUT-X71-LSmitll_DFFT-IN X337-LSmitll_SPLITT-OUT-X71-LSmitll_DFFT-IN X71-LSmitll_DFFT-OUT-X135-LSmitll_OR2T-INt LSmitll_DFFT

t887 X72-LSmitll_DFFT-OUT-X142-LSmitll_DFFT-INt 0 X72-LSmitll_DFFT-OUT-X142-LSmitll_DFFT-IN 0 z0=5 td=2.1ps
X72 X47-LSmitll_SPLITT-OUT-X72-LSmitll_DFFT-IN X400-LSmitll_SPLITT-OUT-X72-LSmitll_DFFT-IN X72-LSmitll_DFFT-OUT-X142-LSmitll_DFFT-INt LSmitll_DFFT

t888 X73-LSmitll_DFFT-OUT-X125-LSmitll_AND2T-INt 0 X73-LSmitll_DFFT-OUT-X125-LSmitll_AND2T-IN 0 z0=5 td=2.4ps
X73 X49-LSmitll_SPLITT-OUT-X73-LSmitll_DFFT-IN X334-LSmitll_SPLITT-OUT-X73-LSmitll_DFFT-IN X73-LSmitll_DFFT-OUT-X125-LSmitll_AND2T-INt LSmitll_DFFT

t889 X74-LSmitll_DFFT-OUT-X111-LSmitll_SPLITT-INt 0 X74-LSmitll_DFFT-OUT-X111-LSmitll_SPLITT-IN 0 z0=5 td=1.3ps
X74 X49-LSmitll_SPLITT-OUT-X74-LSmitll_DFFT-IN X335-LSmitll_SPLITT-OUT-X74-LSmitll_DFFT-IN X74-LSmitll_DFFT-OUT-X111-LSmitll_SPLITT-INt LSmitll_DFFT

t890 X75-LSmitll_DFFT-OUT-X135-LSmitll_OR2T-INt 0 X75-LSmitll_DFFT-OUT-X135-LSmitll_OR2T-IN 0 z0=5 td=3.6ps
X75 X50-LSmitll_SPLITT-OUT-X75-LSmitll_DFFT-IN X330-LSmitll_SPLITT-OUT-X75-LSmitll_DFFT-IN X75-LSmitll_DFFT-OUT-X135-LSmitll_OR2T-INt LSmitll_DFFT

t891 X76-LSmitll_DFFT-OUT-X143-LSmitll_DFFT-INt 0 X76-LSmitll_DFFT-OUT-X143-LSmitll_DFFT-IN 0 z0=5 td=0.9ps
X76 X50-LSmitll_SPLITT-OUT-X76-LSmitll_DFFT-IN X379-LSmitll_SPLITT-OUT-X76-LSmitll_DFFT-IN X76-LSmitll_DFFT-OUT-X143-LSmitll_DFFT-INt LSmitll_DFFT

t892 X77-LSmitll_DFFT-OUT-X128-LSmitll_AND2T-INt 0 X77-LSmitll_DFFT-OUT-X128-LSmitll_AND2T-IN 0 z0=5 td=1.8ps
X77 X53-LSmitll_SPLITT-OUT-X77-LSmitll_DFFT-IN X362-LSmitll_SPLITT-OUT-X77-LSmitll_DFFT-IN X77-LSmitll_DFFT-OUT-X128-LSmitll_AND2T-INt LSmitll_DFFT

t893 X78-LSmitll_DFFT-OUT-X112-LSmitll_SPLITT-INt 0 X78-LSmitll_DFFT-OUT-X112-LSmitll_SPLITT-IN 0 z0=5 td=6.9ps
X78 X53-LSmitll_SPLITT-OUT-X78-LSmitll_DFFT-IN X359-LSmitll_SPLITT-OUT-X78-LSmitll_DFFT-IN X78-LSmitll_DFFT-OUT-X112-LSmitll_SPLITT-INt LSmitll_DFFT

t894 X79-LSmitll_DFFT-OUT-X136-LSmitll_DFFT-INt 0 X79-LSmitll_DFFT-OUT-X136-LSmitll_DFFT-IN 0 z0=5 td=0.9ps
X79 X55-LSmitll_SPLITT-OUT-X79-LSmitll_DFFT-IN X320-LSmitll_SPLITT-OUT-X79-LSmitll_DFFT-IN X79-LSmitll_DFFT-OUT-X136-LSmitll_DFFT-INt LSmitll_DFFT

t895 X80-LSmitll_NOTT-OUT-X137-LSmitll_AND2T-INt 0 X80-LSmitll_NOTT-OUT-X137-LSmitll_AND2T-IN 0 z0=5 td=0.9ps
X80 X55-LSmitll_SPLITT-OUT-X80-LSmitll_NOTT-IN X316-LSmitll_SPLITT-OUT-X80-LSmitll_NOTT-IN X80-LSmitll_NOTT-OUT-X137-LSmitll_AND2T-INt LSmitll_NOTT

t896 X81-LSmitll_DFFT-OUT-X131-LSmitll_AND2T-INt 0 X81-LSmitll_DFFT-OUT-X131-LSmitll_AND2T-IN 0 z0=5 td=1.8ps
X81 X54-LSmitll_SPLITT-OUT-X81-LSmitll_DFFT-IN X503-LSmitll_SPLITT-OUT-X81-LSmitll_DFFT-IN X81-LSmitll_DFFT-OUT-X131-LSmitll_AND2T-INt LSmitll_DFFT

t897 X82-LSmitll_DFFT-OUT-X113-LSmitll_SPLITT-INt 0 X82-LSmitll_DFFT-OUT-X113-LSmitll_SPLITT-IN 0 z0=5 td=1.3ps
X82 X54-LSmitll_SPLITT-OUT-X82-LSmitll_DFFT-IN X550-LSmitll_SPLITT-OUT-X82-LSmitll_DFFT-IN X82-LSmitll_DFFT-OUT-X113-LSmitll_SPLITT-INt LSmitll_DFFT

t898 X83-LSmitll_DFFT-OUT-X138-LSmitll_AND2T-INt 0 X83-LSmitll_DFFT-OUT-X138-LSmitll_AND2T-IN 0 z0=5 td=0.9ps
X83 X56-LSmitll_SPLITT-OUT-X83-LSmitll_DFFT-IN X431-LSmitll_SPLITT-OUT-X83-LSmitll_DFFT-IN X83-LSmitll_DFFT-OUT-X138-LSmitll_AND2T-INt LSmitll_DFFT

t899 X84-LSmitll_NOTT-OUT-X139-LSmitll_AND2T-INt 0 X84-LSmitll_NOTT-OUT-X139-LSmitll_AND2T-IN 0 z0=5 td=16.9ps
X84 X56-LSmitll_SPLITT-OUT-X84-LSmitll_NOTT-IN X434-LSmitll_SPLITT-OUT-X84-LSmitll_NOTT-IN X84-LSmitll_NOTT-OUT-X139-LSmitll_AND2T-INt LSmitll_NOTT

t900 X85-LSmitll_DFFT-OUT-X134-LSmitll_AND2T-INt 0 X85-LSmitll_DFFT-OUT-X134-LSmitll_AND2T-IN 0 z0=5 td=2.0ps
X85 X58-LSmitll_SPLITT-OUT-X85-LSmitll_DFFT-IN X530-LSmitll_SPLITT-OUT-X85-LSmitll_DFFT-IN X85-LSmitll_DFFT-OUT-X134-LSmitll_AND2T-INt LSmitll_DFFT

t901 X86-LSmitll_DFFT-OUT-X114-LSmitll_SPLITT-INt 0 X86-LSmitll_DFFT-OUT-X114-LSmitll_SPLITT-IN 0 z0=5 td=1.3ps