.subckt programmer_instr_memory_final_route program_line4t load4t program_line3t load3t program_line2t load2t program_line1t load1t Addr1_1t Addr1_0t Addr0_1t Addr0_0t read1t read0t read_at_first_addr1t read_at_first_addr0t GCLKt bit_out0 bit_out1 bit_out2 bit_out3 bit_out4 bit_out5 bit_out6

X669 X525-SPLITT-OUT-R-IN X525-SPLITT-OUT-R-INr LSmitll_PTLRX
X670 X525-SPLITT-OUT-R-INr X525-SPLITT-OUT-R-INdc LSmitll_SFQDC
R671 X525-SPLITT-OUT-R-INdc 0 5
X672 X525-SPLITT-OUT-R-IN PAD

X673 X526-SPLITT-OUT-R-IN X526-SPLITT-OUT-R-INr LSmitll_PTLRX
X674 X526-SPLITT-OUT-R-INr X526-SPLITT-OUT-R-INdc LSmitll_SFQDC
R675 X526-SPLITT-OUT-R-INdc 0 5
X676 X526-SPLITT-OUT-R-IN PAD

X677 X527-SPLITT-OUT-R-IN X527-SPLITT-OUT-R-INr LSmitll_PTLRX
X678 X527-SPLITT-OUT-R-INr X527-SPLITT-OUT-R-INdc LSmitll_SFQDC
R679 X527-SPLITT-OUT-R-INdc 0 5
X680 X527-SPLITT-OUT-R-IN PAD

X681 X528-SPLITT-OUT-R-IN X528-SPLITT-OUT-R-INr LSmitll_PTLRX
X682 X528-SPLITT-OUT-R-INr X528-SPLITT-OUT-R-INdc LSmitll_SFQDC
R683 X528-SPLITT-OUT-R-INdc 0 5
X684 X528-SPLITT-OUT-R-IN PAD

X685 X529-SPLITT-OUT-R-IN X529-SPLITT-OUT-R-INr LSmitll_PTLRX
X686 X529-SPLITT-OUT-R-INr X529-SPLITT-OUT-R-INdc LSmitll_SFQDC
R687 X529-SPLITT-OUT-R-INdc 0 5
X688 X529-SPLITT-OUT-R-IN PAD

X689 X530-SPLITT-OUT-R-IN X530-SPLITT-OUT-R-INr LSmitll_PTLRX
X690 X530-SPLITT-OUT-R-INr X530-SPLITT-OUT-R-INdc LSmitll_SFQDC
R691 X530-SPLITT-OUT-R-INdc 0 5
X692 X530-SPLITT-OUT-R-IN PAD

X693 X531-SPLITT-OUT-R-IN X531-SPLITT-OUT-R-INr LSmitll_PTLRX
X694 X531-SPLITT-OUT-R-INr X531-SPLITT-OUT-R-INdc LSmitll_SFQDC
R695 X531-SPLITT-OUT-R-INdc 0 5
X696 X531-SPLITT-OUT-R-IN PAD

X697 X532-SPLITT-OUT-R-IN X532-SPLITT-OUT-R-INr LSmitll_PTLRX
X698 X532-SPLITT-OUT-R-INr X532-SPLITT-OUT-R-INdc LSmitll_SFQDC
R699 X532-SPLITT-OUT-R-INdc 0 5
X700 X532-SPLITT-OUT-R-IN PAD

X701 X533-SPLITT-OUT-R-IN X533-SPLITT-OUT-R-INr LSmitll_PTLRX
X702 X533-SPLITT-OUT-R-INr X533-SPLITT-OUT-R-INdc LSmitll_SFQDC
R703 X533-SPLITT-OUT-R-INdc 0 5
X704 X533-SPLITT-OUT-R-IN PAD

X705 X534-SPLITT-OUT-R-IN X534-SPLITT-OUT-R-INr LSmitll_PTLRX
X706 X534-SPLITT-OUT-R-INr X534-SPLITT-OUT-R-INdc LSmitll_SFQDC
R707 X534-SPLITT-OUT-R-INdc 0 5
X708 X534-SPLITT-OUT-R-IN PAD

X709 X535-SPLITT-OUT-R-IN X535-SPLITT-OUT-R-INr LSmitll_PTLRX
X710 X535-SPLITT-OUT-R-INr X535-SPLITT-OUT-R-INdc LSmitll_SFQDC
R711 X535-SPLITT-OUT-R-INdc 0 5
X712 X535-SPLITT-OUT-R-IN PAD

X713 X536-SPLITT-OUT-R-IN X536-SPLITT-OUT-R-INr LSmitll_PTLRX
X714 X536-SPLITT-OUT-R-INr X536-SPLITT-OUT-R-INdc LSmitll_SFQDC
R715 X536-SPLITT-OUT-R-INdc 0 5
X716 X536-SPLITT-OUT-R-IN PAD

X717 X537-SPLITT-OUT-R-IN X537-SPLITT-OUT-R-INr LSmitll_PTLRX
X718 X537-SPLITT-OUT-R-INr X537-SPLITT-OUT-R-INdc LSmitll_SFQDC
R719 X537-SPLITT-OUT-R-INdc 0 5
X720 X537-SPLITT-OUT-R-IN PAD

X721 X538-SPLITT-OUT-R-IN X538-SPLITT-OUT-R-INr LSmitll_PTLRX
X722 X538-SPLITT-OUT-R-INr X538-SPLITT-OUT-R-INdc LSmitll_SFQDC
R723 X538-SPLITT-OUT-R-INdc 0 5
X724 X538-SPLITT-OUT-R-IN PAD

X725 X539-SPLITT-OUT-R-IN X539-SPLITT-OUT-R-INr LSmitll_PTLRX
X726 X539-SPLITT-OUT-R-INr X539-SPLITT-OUT-R-INdc LSmitll_SFQDC
R727 X539-SPLITT-OUT-R-INdc 0 5
X728 X539-SPLITT-OUT-R-IN PAD

X729 X540-SPLITT-OUT-R-IN X540-SPLITT-OUT-R-INr LSmitll_PTLRX
X730 X540-SPLITT-OUT-R-INr X540-SPLITT-OUT-R-INdc LSmitll_SFQDC
R731 X540-SPLITT-OUT-R-INdc 0 5
X732 X540-SPLITT-OUT-R-IN PAD

X733 X541-SPLITT-OUT-R-IN X541-SPLITT-OUT-R-INr LSmitll_PTLRX
X734 X541-SPLITT-OUT-R-INr X541-SPLITT-OUT-R-INdc LSmitll_SFQDC
R735 X541-SPLITT-OUT-R-INdc 0 5
X736 X541-SPLITT-OUT-R-IN PAD

X737 X542-SPLITT-OUT-R-IN X542-SPLITT-OUT-R-INr LSmitll_PTLRX
X738 X542-SPLITT-OUT-R-INr X542-SPLITT-OUT-R-INdc LSmitll_SFQDC
R739 X542-SPLITT-OUT-R-INdc 0 5
X740 X542-SPLITT-OUT-R-IN PAD

X741 X543-SPLITT-OUT-R-IN X543-SPLITT-OUT-R-INr LSmitll_PTLRX
X742 X543-SPLITT-OUT-R-INr X543-SPLITT-OUT-R-INdc LSmitll_SFQDC
R743 X543-SPLITT-OUT-R-INdc 0 5
X744 X543-SPLITT-OUT-R-IN PAD

X745 X544-SPLITT-OUT-R-IN X544-SPLITT-OUT-R-INr LSmitll_PTLRX
X746 X544-SPLITT-OUT-R-INr X544-SPLITT-OUT-R-INdc LSmitll_SFQDC
R747 X544-SPLITT-OUT-R-INdc 0 5
X748 X544-SPLITT-OUT-R-IN PAD

X749 X545-SPLITT-OUT-R-IN X545-SPLITT-OUT-R-INr LSmitll_PTLRX
X750 X545-SPLITT-OUT-R-INr X545-SPLITT-OUT-R-INdc LSmitll_SFQDC
R751 X545-SPLITT-OUT-R-INdc 0 5
X752 X545-SPLITT-OUT-R-IN PAD

X753 X546-SPLITT-OUT-R-IN X546-SPLITT-OUT-R-INr LSmitll_PTLRX
X754 X546-SPLITT-OUT-R-INr X546-SPLITT-OUT-R-INdc LSmitll_SFQDC
R755 X546-SPLITT-OUT-R-INdc 0 5
X756 X546-SPLITT-OUT-R-IN PAD

X757 X547-SPLITT-OUT-R-IN X547-SPLITT-OUT-R-INr LSmitll_PTLRX
X758 X547-SPLITT-OUT-R-INr X547-SPLITT-OUT-R-INdc LSmitll_SFQDC
R759 X547-SPLITT-OUT-R-INdc 0 5
X760 X547-SPLITT-OUT-R-IN PAD

X761 X548-SPLITT-OUT-R-IN X548-SPLITT-OUT-R-INr LSmitll_PTLRX
X762 X548-SPLITT-OUT-R-INr X548-SPLITT-OUT-R-INdc LSmitll_SFQDC
R763 X548-SPLITT-OUT-R-INdc 0 5
X764 X548-SPLITT-OUT-R-IN PAD

X765 X549-SPLITT-OUT-R-IN X549-SPLITT-OUT-R-INr LSmitll_PTLRX
X766 X549-SPLITT-OUT-R-INr X549-SPLITT-OUT-R-INdc LSmitll_SFQDC
R767 X549-SPLITT-OUT-R-INdc 0 5
X768 X549-SPLITT-OUT-R-IN PAD

X769 X550-SPLITT-OUT-R-IN X550-SPLITT-OUT-R-INr LSmitll_PTLRX
X770 X550-SPLITT-OUT-R-INr X550-SPLITT-OUT-R-INdc LSmitll_SFQDC
R771 X550-SPLITT-OUT-R-INdc 0 5
X772 X550-SPLITT-OUT-R-IN PAD

X773 X551-SPLITT-OUT-R-IN X551-SPLITT-OUT-R-INr LSmitll_PTLRX
X774 X551-SPLITT-OUT-R-INr X551-SPLITT-OUT-R-INdc LSmitll_SFQDC
R775 X551-SPLITT-OUT-R-INdc 0 5
X776 X551-SPLITT-OUT-R-IN PAD

X777 X552-SPLITT-OUT-R-IN X552-SPLITT-OUT-R-INr LSmitll_PTLRX
X778 X552-SPLITT-OUT-R-INr X552-SPLITT-OUT-R-INdc LSmitll_SFQDC
R779 X552-SPLITT-OUT-R-INdc 0 5
X780 X552-SPLITT-OUT-R-IN PAD

X781 X553-SPLITT-OUT-R-IN X553-SPLITT-OUT-R-INr LSmitll_PTLRX
X782 X553-SPLITT-OUT-R-INr X553-SPLITT-OUT-R-INdc LSmitll_SFQDC
R783 X553-SPLITT-OUT-R-INdc 0 5
X784 X553-SPLITT-OUT-R-IN PAD

X785 X554-SPLITT-OUT-R-IN X554-SPLITT-OUT-R-INr LSmitll_PTLRX
X786 X554-SPLITT-OUT-R-INr X554-SPLITT-OUT-R-INdc LSmitll_SFQDC
R787 X554-SPLITT-OUT-R-INdc 0 5
X788 X554-SPLITT-OUT-R-IN PAD

X789 X555-SPLITT-OUT-R-IN X555-SPLITT-OUT-R-INr LSmitll_PTLRX
X790 X555-SPLITT-OUT-R-INr X555-SPLITT-OUT-R-INdc LSmitll_SFQDC
R791 X555-SPLITT-OUT-R-INdc 0 5
X792 X555-SPLITT-OUT-R-IN PAD

X793 X556-SPLITT-OUT-R-IN X556-SPLITT-OUT-R-INr LSmitll_PTLRX
X794 X556-SPLITT-OUT-R-INr X556-SPLITT-OUT-R-INdc LSmitll_SFQDC
R795 X556-SPLITT-OUT-R-INdc 0 5
X796 X556-SPLITT-OUT-R-IN PAD

X797 X557-SPLITT-OUT-R-IN X557-SPLITT-OUT-R-INr LSmitll_PTLRX
X798 X557-SPLITT-OUT-R-INr X557-SPLITT-OUT-R-INdc LSmitll_SFQDC
R799 X557-SPLITT-OUT-R-INdc 0 5
X800 X557-SPLITT-OUT-R-IN PAD

X801 X558-SPLITT-OUT-R-IN X558-SPLITT-OUT-R-INr LSmitll_PTLRX
X802 X558-SPLITT-OUT-R-INr X558-SPLITT-OUT-R-INdc LSmitll_SFQDC
R803 X558-SPLITT-OUT-R-INdc 0 5
X804 X558-SPLITT-OUT-R-IN PAD

X805 X559-SPLITT-OUT-R-IN X559-SPLITT-OUT-R-INr LSmitll_PTLRX
X806 X559-SPLITT-OUT-R-INr X559-SPLITT-OUT-R-INdc LSmitll_SFQDC
R807 X559-SPLITT-OUT-R-INdc 0 5
X808 X559-SPLITT-OUT-R-IN PAD

X809 X560-SPLITT-OUT-R-IN X560-SPLITT-OUT-R-INr LSmitll_PTLRX
X810 X560-SPLITT-OUT-R-INr X560-SPLITT-OUT-R-INdc LSmitll_SFQDC
R811 X560-SPLITT-OUT-R-INdc 0 5
X812 X560-SPLITT-OUT-R-IN PAD

X813 X561-SPLITT-OUT-R-IN X561-SPLITT-OUT-R-INr LSmitll_PTLRX
X814 X561-SPLITT-OUT-R-INr X561-SPLITT-OUT-R-INdc LSmitll_SFQDC
R815 X561-SPLITT-OUT-R-INdc 0 5
X816 X561-SPLITT-OUT-R-IN PAD

X817 X562-SPLITT-OUT-R-IN X562-SPLITT-OUT-R-INr LSmitll_PTLRX
X818 X562-SPLITT-OUT-R-INr X562-SPLITT-OUT-R-INdc LSmitll_SFQDC
R819 X562-SPLITT-OUT-R-INdc 0 5
X820 X562-SPLITT-OUT-R-IN PAD

X821 X563-SPLITT-OUT-R-IN X563-SPLITT-OUT-R-INr LSmitll_PTLRX
X822 X563-SPLITT-OUT-R-INr X563-SPLITT-OUT-R-INdc LSmitll_SFQDC
R823 X563-SPLITT-OUT-R-INdc 0 5
X824 X563-SPLITT-OUT-R-IN PAD

X825 X564-SPLITT-OUT-R-IN X564-SPLITT-OUT-R-INr LSmitll_PTLRX
X826 X564-SPLITT-OUT-R-INr X564-SPLITT-OUT-R-INdc LSmitll_SFQDC
R827 X564-SPLITT-OUT-R-INdc 0 5
X828 X564-SPLITT-OUT-R-IN PAD

X829 X565-SPLITT-OUT-R-IN X565-SPLITT-OUT-R-INr LSmitll_PTLRX
X830 X565-SPLITT-OUT-R-INr X565-SPLITT-OUT-R-INdc LSmitll_SFQDC
R831 X565-SPLITT-OUT-R-INdc 0 5
X832 X565-SPLITT-OUT-R-IN PAD

X833 X566-SPLITT-OUT-R-IN X566-SPLITT-OUT-R-INr LSmitll_PTLRX
X834 X566-SPLITT-OUT-R-INr X566-SPLITT-OUT-R-INdc LSmitll_SFQDC
R835 X566-SPLITT-OUT-R-INdc 0 5
X836 X566-SPLITT-OUT-R-IN PAD

X837 X567-SPLITT-OUT-R-IN X567-SPLITT-OUT-R-INr LSmitll_PTLRX
X838 X567-SPLITT-OUT-R-INr X567-SPLITT-OUT-R-INdc LSmitll_SFQDC
R839 X567-SPLITT-OUT-R-INdc 0 5
X840 X567-SPLITT-OUT-R-IN PAD

X841 X568-SPLITT-OUT-R-IN X568-SPLITT-OUT-R-INr LSmitll_PTLRX
X842 X568-SPLITT-OUT-R-INr X568-SPLITT-OUT-R-INdc LSmitll_SFQDC
R843 X568-SPLITT-OUT-R-INdc 0 5
X844 X568-SPLITT-OUT-R-IN PAD

X845 X569-SPLITT-OUT-R-IN X569-SPLITT-OUT-R-INr LSmitll_PTLRX
X846 X569-SPLITT-OUT-R-INr X569-SPLITT-OUT-R-INdc LSmitll_SFQDC
R847 X569-SPLITT-OUT-R-INdc 0 5
X848 X569-SPLITT-OUT-R-IN PAD

X849 X570-SPLITT-OUT-R-IN X570-SPLITT-OUT-R-INr LSmitll_PTLRX
X850 X570-SPLITT-OUT-R-INr X570-SPLITT-OUT-R-INdc LSmitll_SFQDC
R851 X570-SPLITT-OUT-R-INdc 0 5
X852 X570-SPLITT-OUT-R-IN PAD

X853 X571-SPLITT-OUT-R-IN X571-SPLITT-OUT-R-INr LSmitll_PTLRX
X854 X571-SPLITT-OUT-R-INr X571-SPLITT-OUT-R-INdc LSmitll_SFQDC
R855 X571-SPLITT-OUT-R-INdc 0 5
X856 X571-SPLITT-OUT-R-IN PAD

X857 X572-SPLITT-OUT-R-IN X572-SPLITT-OUT-R-INr LSmitll_PTLRX
X858 X572-SPLITT-OUT-R-INr X572-SPLITT-OUT-R-INdc LSmitll_SFQDC
R859 X572-SPLITT-OUT-R-INdc 0 5
X860 X572-SPLITT-OUT-R-IN PAD

X861 X573-SPLITT-OUT-R-IN X573-SPLITT-OUT-R-INr LSmitll_PTLRX
X862 X573-SPLITT-OUT-R-INr X573-SPLITT-OUT-R-INdc LSmitll_SFQDC
R863 X573-SPLITT-OUT-R-INdc 0 5
X864 X573-SPLITT-OUT-R-IN PAD

X865 X574-SPLITT-OUT-R-IN X574-SPLITT-OUT-R-INr LSmitll_PTLRX
X866 X574-SPLITT-OUT-R-INr X574-SPLITT-OUT-R-INdc LSmitll_SFQDC
R867 X574-SPLITT-OUT-R-INdc 0 5
X868 X574-SPLITT-OUT-R-IN PAD

X869 X575-SPLITT-OUT-R-IN X575-SPLITT-OUT-R-INr LSmitll_PTLRX
X870 X575-SPLITT-OUT-R-INr X575-SPLITT-OUT-R-INdc LSmitll_SFQDC
R871 X575-SPLITT-OUT-R-INdc 0 5
X872 X575-SPLITT-OUT-R-IN PAD

t877 X1-LSmitll_SPLITT-OUT-X189-LSmitll_SPLITT-INt 0 X1-LSmitll_SPLITT-OUT-X189-LSmitll_SPLITT-IN 0 z0=5 td=1.6ps
t878 X1-LSmitll_SPLITT-OUT-X18-LSmitll_DFFT-INt 0 X1-LSmitll_SPLITT-OUT-X18-LSmitll_DFFT-IN 0 z0=5 td=4.1ps
X1 load1 X1-LSmitll_SPLITT-OUT-X189-LSmitll_SPLITT-INt X1-LSmitll_SPLITT-OUT-X18-LSmitll_DFFT-INt LSmitll_SPLITT

t879 X2-LSmitll_SPLITT-OUT-X218-LSmitll_AND2T-INt 0 X2-LSmitll_SPLITT-OUT-X218-LSmitll_AND2T-IN 0 z0=5 td=1.2ps
t880 X2-LSmitll_SPLITT-OUT-X17-LSmitll_DFFT-INt 0 X2-LSmitll_SPLITT-OUT-X17-LSmitll_DFFT-IN 0 z0=5 td=4.1ps
X2 program_line1 X2-LSmitll_SPLITT-OUT-X218-LSmitll_AND2T-INt X2-LSmitll_SPLITT-OUT-X17-LSmitll_DFFT-INt LSmitll_SPLITT

t881 X3-LSmitll_SPLITT-OUT-X196-LSmitll_SPLITT-INt 0 X3-LSmitll_SPLITT-OUT-X196-LSmitll_SPLITT-IN 0 z0=5 td=1.6ps
t882 X3-LSmitll_SPLITT-OUT-X21-LSmitll_DFFT-INt 0 X3-LSmitll_SPLITT-OUT-X21-LSmitll_DFFT-IN 0 z0=5 td=4.0ps
X3 load2 X3-LSmitll_SPLITT-OUT-X196-LSmitll_SPLITT-INt X3-LSmitll_SPLITT-OUT-X21-LSmitll_DFFT-INt LSmitll_SPLITT

t883 X4-LSmitll_SPLITT-OUT-X232-LSmitll_AND2T-INt 0 X4-LSmitll_SPLITT-OUT-X232-LSmitll_AND2T-IN 0 z0=5 td=1.7ps
t884 X4-LSmitll_SPLITT-OUT-X20-LSmitll_DFFT-INt 0 X4-LSmitll_SPLITT-OUT-X20-LSmitll_DFFT-IN 0 z0=5 td=5.2ps
X4 program_line2 X4-LSmitll_SPLITT-OUT-X232-LSmitll_AND2T-INt X4-LSmitll_SPLITT-OUT-X20-LSmitll_DFFT-INt LSmitll_SPLITT

t885 X5-LSmitll_SPLITT-OUT-X203-LSmitll_SPLITT-INt 0 X5-LSmitll_SPLITT-OUT-X203-LSmitll_SPLITT-IN 0 z0=5 td=4.6ps
t886 X5-LSmitll_SPLITT-OUT-X24-LSmitll_DFFT-INt 0 X5-LSmitll_SPLITT-OUT-X24-LSmitll_DFFT-IN 0 z0=5 td=1.9ps
X5 load3 X5-LSmitll_SPLITT-OUT-X203-LSmitll_SPLITT-INt X5-LSmitll_SPLITT-OUT-X24-LSmitll_DFFT-INt LSmitll_SPLITT

t887 X6-LSmitll_SPLITT-OUT-X246-LSmitll_AND2T-INt 0 X6-LSmitll_SPLITT-OUT-X246-LSmitll_AND2T-IN 0 z0=5 td=1.2ps
t888 X6-LSmitll_SPLITT-OUT-X23-LSmitll_DFFT-INt 0 X6-LSmitll_SPLITT-OUT-X23-LSmitll_DFFT-IN 0 z0=5 td=1.9ps
X6 program_line3 X6-LSmitll_SPLITT-OUT-X246-LSmitll_AND2T-INt X6-LSmitll_SPLITT-OUT-X23-LSmitll_DFFT-INt LSmitll_SPLITT

t889 X7-LSmitll_SPLITT-OUT-X210-LSmitll_SPLITT-INt 0 X7-LSmitll_SPLITT-OUT-X210-LSmitll_SPLITT-IN 0 z0=5 td=9.8ps
t890 X7-LSmitll_SPLITT-OUT-X27-LSmitll_DFFT-INt 0 X7-LSmitll_SPLITT-OUT-X27-LSmitll_DFFT-IN 0 z0=5 td=1.0ps
X7 load4 X7-LSmitll_SPLITT-OUT-X210-LSmitll_SPLITT-INt X7-LSmitll_SPLITT-OUT-X27-LSmitll_DFFT-INt LSmitll_SPLITT

t891 X8-LSmitll_SPLITT-OUT-X260-LSmitll_AND2T-INt 0 X8-LSmitll_SPLITT-OUT-X260-LSmitll_AND2T-IN 0 z0=5 td=2.6ps
t892 X8-LSmitll_SPLITT-OUT-X26-LSmitll_DFFT-INt 0 X8-LSmitll_SPLITT-OUT-X26-LSmitll_DFFT-IN 0 z0=5 td=1.0ps
X8 program_line4 X8-LSmitll_SPLITT-OUT-X260-LSmitll_AND2T-INt X8-LSmitll_SPLITT-OUT-X26-LSmitll_DFFT-INt LSmitll_SPLITT

t893 X9-LSmitll_SPLITT-OUT-X37-LSmitll_NOTT-INt 0 X9-LSmitll_SPLITT-OUT-X37-LSmitll_NOTT-IN 0 z0=5 td=1.2ps
t894 X9-LSmitll_SPLITT-OUT-X29-LSmitll_DFFT-INt 0 X9-LSmitll_SPLITT-OUT-X29-LSmitll_DFFT-IN 0 z0=5 td=1.9ps
X9 Addr1_0 X9-LSmitll_SPLITT-OUT-X37-LSmitll_NOTT-INt X9-LSmitll_SPLITT-OUT-X29-LSmitll_DFFT-INt LSmitll_SPLITT

t895 X10-LSmitll_SPLITT-OUT-X38-LSmitll_NOTT-INt 0 X10-LSmitll_SPLITT-OUT-X38-LSmitll_NOTT-IN 0 z0=5 td=4.7ps
t896 X10-LSmitll_SPLITT-OUT-X30-LSmitll_DFFT-INt 0 X10-LSmitll_SPLITT-OUT-X30-LSmitll_DFFT-IN 0 z0=5 td=6.3ps
X10 Addr0_0 X10-LSmitll_SPLITT-OUT-X38-LSmitll_NOTT-INt X10-LSmitll_SPLITT-OUT-X30-LSmitll_DFFT-INt LSmitll_SPLITT

t897 X11-LSmitll_SPLITT-OUT-X34-LSmitll_OR2T-INt 0 X11-LSmitll_SPLITT-OUT-X34-LSmitll_OR2T-IN 0 z0=5 td=1.2ps
t898 X11-LSmitll_SPLITT-OUT-X33-LSmitll_OR2T-INt 0 X11-LSmitll_SPLITT-OUT-X33-LSmitll_OR2T-IN 0 z0=5 td=4.9ps
X11 read_at_first_addr0 X11-LSmitll_SPLITT-OUT-X34-LSmitll_OR2T-INt X11-LSmitll_SPLITT-OUT-X33-LSmitll_OR2T-INt LSmitll_SPLITT

t899 X12-LSmitll_SPLITT-OUT-X34-LSmitll_OR2T-INt 0 X12-LSmitll_SPLITT-OUT-X34-LSmitll_OR2T-IN 0 z0=5 td=4.0ps
t900 X12-LSmitll_SPLITT-OUT-X33-LSmitll_OR2T-INt 0 X12-LSmitll_SPLITT-OUT-X33-LSmitll_OR2T-IN 0 z0=5 td=2.1ps
X12 read0 X12-LSmitll_SPLITT-OUT-X34-LSmitll_OR2T-INt X12-LSmitll_SPLITT-OUT-X33-LSmitll_OR2T-INt LSmitll_SPLITT

t901 X13-LSmitll_SPLITT-OUT-X39-LSmitll_NOTT-INt 0 X13-LSmitll_SPLITT-OUT-X39-LSmitll_NOTT-IN 0 z0=5 td=5.9ps
t902 X13-LSmitll_SPLITT-OUT-X31-LSmitll_DFFT-INt 0 X13-LSmitll_SPLITT-OUT-X31-LSmitll_DFFT-IN 0 z0=5 td=4.9ps
X13 Addr1_1 X13-LSmitll_SPLITT-OUT-X39-LSmitll_NOTT-INt X13-LSmitll_SPLITT-OUT-X31-LSmitll_DFFT-INt LSmitll_SPLITT

t903 X14-LSmitll_SPLITT-OUT-X40-LSmitll_NOTT-INt 0 X14-LSmitll_SPLITT-OUT-X40-LSmitll_NOTT-IN 0 z0=5 td=1.2ps
t904 X14-LSmitll_SPLITT-OUT-X32-LSmitll_DFFT-INt 0 X14-LSmitll_SPLITT-OUT-X32-LSmitll_DFFT-IN 0 z0=5 td=2.6ps
X14 Addr0_1 X14-LSmitll_SPLITT-OUT-X40-LSmitll_NOTT-INt X14-LSmitll_SPLITT-OUT-X32-LSmitll_DFFT-INt LSmitll_SPLITT

t905 X15-LSmitll_SPLITT-OUT-X36-LSmitll_OR2T-INt 0 X15-LSmitll_SPLITT-OUT-X36-LSmitll_OR2T-IN 0 z0=5 td=1.7ps
t906 X15-LSmitll_SPLITT-OUT-X35-LSmitll_OR2T-INt 0 X15-LSmitll_SPLITT-OUT-X35-LSmitll_OR2T-IN 0 z0=5 td=1.4ps
X15 read_at_first_addr1 X15-LSmitll_SPLITT-OUT-X36-LSmitll_OR2T-INt X15-LSmitll_SPLITT-OUT-X35-LSmitll_OR2T-INt LSmitll_SPLITT

t907 X16-LSmitll_SPLITT-OUT-X36-LSmitll_OR2T-INt 0 X16-LSmitll_SPLITT-OUT-X36-LSmitll_OR2T-IN 0 z0=5 td=1.8ps
t908 X16-LSmitll_SPLITT-OUT-X35-LSmitll_OR2T-INt 0 X16-LSmitll_SPLITT-OUT-X35-LSmitll_OR2T-IN 0 z0=5 td=2.3ps
X16 read1 X16-LSmitll_SPLITT-OUT-X36-LSmitll_OR2T-INt X16-LSmitll_SPLITT-OUT-X35-LSmitll_OR2T-INt LSmitll_SPLITT

t909 X17-LSmitll_DFFT-OUT-X41-LSmitll_SPLITT-INt 0 X17-LSmitll_DFFT-OUT-X41-LSmitll_SPLITT-IN 0 z0=5 td=3.3ps
X17 X2-LSmitll_SPLITT-OUT-X17-LSmitll_DFFT-IN X450-LSmitll_SPLITT-OUT-X17-LSmitll_DFFT-IN X17-LSmitll_DFFT-OUT-X41-LSmitll_SPLITT-INt LSmitll_DFFT

t910 X18-LSmitll_DFFT-OUT-X19-LSmitll_DFFT-INt 0 X18-LSmitll_DFFT-OUT-X19-LSmitll_DFFT-IN 0 z0=5 td=2.1ps
X18 X1-LSmitll_SPLITT-OUT-X18-LSmitll_DFFT-IN X455-LSmitll_SPLITT-OUT-X18-LSmitll_DFFT-IN X18-LSmitll_DFFT-OUT-X19-LSmitll_DFFT-INt LSmitll_DFFT

t911 X19-LSmitll_DFFT-OUT-X42-LSmitll_SPLITT-INt 0 X19-LSmitll_DFFT-OUT-X42-LSmitll_SPLITT-IN 0 z0=5 td=1.6ps
X19 X18-LSmitll_DFFT-OUT-X19-LSmitll_DFFT-IN X525-LSmitll_SPLITT-OUT-X19-LSmitll_DFFT-IN X19-LSmitll_DFFT-OUT-X42-LSmitll_SPLITT-INt LSmitll_DFFT

t912 X20-LSmitll_DFFT-OUT-X43-LSmitll_SPLITT-INt 0 X20-LSmitll_DFFT-OUT-X43-LSmitll_SPLITT-IN 0 z0=5 td=6.5ps
X20 X4-LSmitll_SPLITT-OUT-X20-LSmitll_DFFT-IN X425-LSmitll_SPLITT-OUT-X20-LSmitll_DFFT-IN X20-LSmitll_DFFT-OUT-X43-LSmitll_SPLITT-INt LSmitll_DFFT

t913 X21-LSmitll_DFFT-OUT-X22-LSmitll_DFFT-INt 0 X21-LSmitll_DFFT-OUT-X22-LSmitll_DFFT-IN 0 z0=5 td=0.9ps
X21 X3-LSmitll_SPLITT-OUT-X21-LSmitll_DFFT-IN X432-LSmitll_SPLITT-OUT-X21-LSmitll_DFFT-IN X21-LSmitll_DFFT-OUT-X22-LSmitll_DFFT-INt LSmitll_DFFT

t914 X22-LSmitll_DFFT-OUT-X44-LSmitll_SPLITT-INt 0 X22-LSmitll_DFFT-OUT-X44-LSmitll_SPLITT-IN 0 z0=5 td=1.2ps
X22 X21-LSmitll_DFFT-OUT-X22-LSmitll_DFFT-IN X430-LSmitll_SPLITT-OUT-X22-LSmitll_DFFT-IN X22-LSmitll_DFFT-OUT-X44-LSmitll_SPLITT-INt LSmitll_DFFT

t915 X23-LSmitll_DFFT-OUT-X45-LSmitll_SPLITT-INt 0 X23-LSmitll_DFFT-OUT-X45-LSmitll_SPLITT-IN 0 z0=5 td=18.7ps
X23 X6-LSmitll_SPLITT-OUT-X23-LSmitll_DFFT-IN X430-LSmitll_SPLITT-OUT-X23-LSmitll_DFFT-IN X23-LSmitll_DFFT-OUT-X45-LSmitll_SPLITT-INt LSmitll_DFFT

t916 X24-LSmitll_DFFT-OUT-X25-LSmitll_DFFT-INt 0 X24-LSmitll_DFFT-OUT-X25-LSmitll_DFFT-IN 0 z0=5 td=2.1ps
X24 X5-LSmitll_SPLITT-OUT-X24-LSmitll_DFFT-IN X348-LSmitll_SPLITT-OUT-X24-LSmitll_DFFT-IN X24-LSmitll_DFFT-OUT-X25-LSmitll_DFFT-INt LSmitll_DFFT

t917 X25-LSmitll_DFFT-OUT-X46-LSmitll_SPLITT-INt 0 X25-LSmitll_DFFT-OUT-X46-LSmitll_SPLITT-IN 0 z0=5 td=11.2ps
X25 X24-LSmitll_DFFT-OUT-X25-LSmitll_DFFT-IN X353-LSmitll_SPLITT-OUT-X25-LSmitll_DFFT-IN X25-LSmitll_DFFT-OUT-X46-LSmitll_SPLITT-INt LSmitll_DFFT

t918 X26-LSmitll_DFFT-OUT-X47-LSmitll_SPLITT-INt 0 X26-LSmitll_DFFT-OUT-X47-LSmitll_SPLITT-IN 0 z0=5 td=5.7ps
X26 X8-LSmitll_SPLITT-OUT-X26-LSmitll_DFFT-IN X323-LSmitll_SPLITT-OUT-X26-LSmitll_DFFT-IN X26-LSmitll_DFFT-OUT-X47-LSmitll_SPLITT-INt LSmitll_DFFT

t919 X27-LSmitll_DFFT-OUT-X28-LSmitll_DFFT-INt 0 X27-LSmitll_DFFT-OUT-X28-LSmitll_DFFT-IN 0 z0=5 td=4.5ps
X27 X7-LSmitll_SPLITT-OUT-X27-LSmitll_DFFT-IN X328-LSmitll_SPLITT-OUT-X27-LSmitll_DFFT-IN X27-LSmitll_DFFT-OUT-X28-LSmitll_DFFT-INt LSmitll_DFFT

t920 X28-LSmitll_DFFT-OUT-X48-LSmitll_SPLITT-INt 0 X28-LSmitll_DFFT-OUT-X48-LSmitll_SPLITT-IN 0 z0=5 td=2.1ps
X28 X27-LSmitll_DFFT-OUT-X28-LSmitll_DFFT-IN X323-LSmitll_SPLITT-OUT-X28-LSmitll_DFFT-IN X28-LSmitll_DFFT-OUT-X48-LSmitll_SPLITT-INt LSmitll_DFFT

t921 X29-LSmitll_DFFT-OUT-X65-LSmitll_AND2T-INt 0 X29-LSmitll_DFFT-OUT-X65-LSmitll_AND2T-IN 0 z0=5 td=9.7ps
X29 X9-LSmitll_SPLITT-OUT-X29-LSmitll_DFFT-IN X442-LSmitll_SPLITT-OUT-X29-LSmitll_DFFT-IN X29-LSmitll_DFFT-OUT-X65-LSmitll_AND2T-INt LSmitll_DFFT

t922 X30-LSmitll_DFFT-OUT-X67-LSmitll_AND2T-INt 0 X30-LSmitll_DFFT-OUT-X67-LSmitll_AND2T-IN 0 z0=5 td=3.6ps
X30 X10-LSmitll_SPLITT-OUT-X30-LSmitll_DFFT-IN X374-LSmitll_SPLITT-OUT-X30-LSmitll_DFFT-IN X30-LSmitll_DFFT-OUT-X67-LSmitll_AND2T-INt LSmitll_DFFT

t923 X31-LSmitll_DFFT-OUT-X69-LSmitll_AND2T-INt 0 X31-LSmitll_DFFT-OUT-X69-LSmitll_AND2T-IN 0 z0=5 td=5.6ps
X31 X13-LSmitll_SPLITT-OUT-X31-LSmitll_DFFT-IN X388-LSmitll_SPLITT-OUT-X31-LSmitll_DFFT-IN X31-LSmitll_DFFT-OUT-X69-LSmitll_AND2T-INt LSmitll_DFFT

t924 X32-LSmitll_DFFT-OUT-X71-LSmitll_AND2T-INt 0 X32-LSmitll_DFFT-OUT-X71-LSmitll_AND2T-IN 0 z0=5 td=2.2ps
X32 X14-LSmitll_SPLITT-OUT-X32-LSmitll_DFFT-IN X518-LSmitll_SPLITT-OUT-X32-LSmitll_DFFT-IN X32-LSmitll_DFFT-OUT-X71-LSmitll_AND2T-INt LSmitll_DFFT

t925 X33-LSmitll_OR2T-OUT-X49-LSmitll_SPLITT-INt 0 X33-LSmitll_OR2T-OUT-X49-LSmitll_SPLITT-IN 0 z0=5 td=16.3ps
X33 X11-LSmitll_SPLITT-OUT-X33-LSmitll_OR2T-IN X12-LSmitll_SPLITT-OUT-X33-LSmitll_OR2T-IN X526-LSmitll_SPLITT-OUT-X33-LSmitll_OR2T-IN X33-LSmitll_OR2T-OUT-X49-LSmitll_SPLITT-INt LSmitll_OR2T

t926 X34-LSmitll_OR2T-OUT-X50-LSmitll_SPLITT-INt 0 X34-LSmitll_OR2T-OUT-X50-LSmitll_SPLITT-IN 0 z0=5 td=12.3ps
X34 X11-LSmitll_SPLITT-OUT-X34-LSmitll_OR2T-IN X12-LSmitll_SPLITT-OUT-X34-LSmitll_OR2T-IN X412-LSmitll_SPLITT-OUT-X34-LSmitll_OR2T-IN X34-LSmitll_OR2T-OUT-X50-LSmitll_SPLITT-INt LSmitll_OR2T

t927 X35-LSmitll_OR2T-OUT-X51-LSmitll_SPLITT-INt 0 X35-LSmitll_OR2T-OUT-X51-LSmitll_SPLITT-IN 0 z0=5 td=12.6ps
X35 X15-LSmitll_SPLITT-OUT-X35-LSmitll_OR2T-IN X16-LSmitll_SPLITT-OUT-X35-LSmitll_OR2T-IN X489-LSmitll_SPLITT-OUT-X35-LSmitll_OR2T-IN X35-LSmitll_OR2T-OUT-X51-LSmitll_SPLITT-INt LSmitll_OR2T

t928 X36-LSmitll_OR2T-OUT-X52-LSmitll_SPLITT-INt 0 X36-LSmitll_OR2T-OUT-X52-LSmitll_SPLITT-IN 0 z0=5 td=3.3ps
X36 X15-LSmitll_SPLITT-OUT-X36-LSmitll_OR2T-IN X16-LSmitll_SPLITT-OUT-X36-LSmitll_OR2T-IN X494-LSmitll_SPLITT-OUT-X36-LSmitll_OR2T-IN X36-LSmitll_OR2T-OUT-X52-LSmitll_SPLITT-INt LSmitll_OR2T

t929 X37-LSmitll_NOTT-OUT-X66-LSmitll_AND2T-INt 0 X37-LSmitll_NOTT-OUT-X66-LSmitll_AND2T-IN 0 z0=5 td=4.6ps
X37 X9-LSmitll_SPLITT-OUT-X37-LSmitll_NOTT-IN X427-LSmitll_SPLITT-OUT-X37-LSmitll_NOTT-IN X37-LSmitll_NOTT-OUT-X66-LSmitll_AND2T-INt LSmitll_NOTT

t930 X38-LSmitll_NOTT-OUT-X68-LSmitll_AND2T-INt 0 X38-LSmitll_NOTT-OUT-X68-LSmitll_AND2T-IN 0 z0=5 td=5.5ps
X38 X10-LSmitll_SPLITT-OUT-X38-LSmitll_NOTT-IN X527-LSmitll_SPLITT-OUT-X38-LSmitll_NOTT-IN X38-LSmitll_NOTT-OUT-X68-LSmitll_AND2T-INt LSmitll_NOTT

t931 X39-LSmitll_NOTT-OUT-X70-LSmitll_AND2T-INt 0 X39-LSmitll_NOTT-OUT-X70-LSmitll_AND2T-IN 0 z0=5 td=2.5ps
X39 X13-LSmitll_SPLITT-OUT-X39-LSmitll_NOTT-IN X393-LSmitll_SPLITT-OUT-X39-LSmitll_NOTT-IN X39-LSmitll_NOTT-OUT-X70-LSmitll_AND2T-INt LSmitll_NOTT

t932 X40-LSmitll_NOTT-OUT-X72-LSmitll_AND2T-INt 0 X40-LSmitll_NOTT-OUT-X72-LSmitll_AND2T-IN 0 z0=5 td=4.3ps
X40 X14-LSmitll_SPLITT-OUT-X40-LSmitll_NOTT-IN X528-LSmitll_SPLITT-OUT-X40-LSmitll_NOTT-IN X40-LSmitll_NOTT-OUT-X72-LSmitll_AND2T-INt LSmitll_NOTT

t933 X41-LSmitll_SPLITT-OUT-X220-LSmitll_AND2T-INt 0 X41-LSmitll_SPLITT-OUT-X220-LSmitll_AND2T-IN 0 z0=5 td=2.3ps
t934 X41-LSmitll_SPLITT-OUT-X53-LSmitll_DFFT-INt 0 X41-LSmitll_SPLITT-OUT-X53-LSmitll_DFFT-IN 0 z0=5 td=3.0ps
X41 X17-LSmitll_DFFT-OUT-X41-LSmitll_SPLITT-IN X41-LSmitll_SPLITT-OUT-X220-LSmitll_AND2T-INt X41-LSmitll_SPLITT-OUT-X53-LSmitll_DFFT-INt LSmitll_SPLITT

t935 X42-LSmitll_SPLITT-OUT-X190-LSmitll_SPLITT-INt 0 X42-LSmitll_SPLITT-OUT-X190-LSmitll_SPLITT-IN 0 z0=5 td=2.7ps
t936 X42-LSmitll_SPLITT-OUT-X54-LSmitll_DFFT-INt 0 X42-LSmitll_SPLITT-OUT-X54-LSmitll_DFFT-IN 0 z0=5 td=2.7ps
X42 X19-LSmitll_DFFT-OUT-X42-LSmitll_SPLITT-IN X42-LSmitll_SPLITT-OUT-X190-LSmitll_SPLITT-INt X42-LSmitll_SPLITT-OUT-X54-LSmitll_DFFT-INt LSmitll_SPLITT

t937 X43-LSmitll_SPLITT-OUT-X234-LSmitll_AND2T-INt 0 X43-LSmitll_SPLITT-OUT-X234-LSmitll_AND2T-IN 0 z0=5 td=1.2ps
t938 X43-LSmitll_SPLITT-OUT-X56-LSmitll_DFFT-INt 0 X43-LSmitll_SPLITT-OUT-X56-LSmitll_DFFT-IN 0 z0=5 td=2.0ps
X43 X20-LSmitll_DFFT-OUT-X43-LSmitll_SPLITT-IN X43-LSmitll_SPLITT-OUT-X234-LSmitll_AND2T-INt X43-LSmitll_SPLITT-OUT-X56-LSmitll_DFFT-INt LSmitll_SPLITT

t939 X44-LSmitll_SPLITT-OUT-X197-LSmitll_SPLITT-INt 0 X44-LSmitll_SPLITT-OUT-X197-LSmitll_SPLITT-IN 0 z0=5 td=3.3ps
t940 X44-LSmitll_SPLITT-OUT-X57-LSmitll_DFFT-INt 0 X44-LSmitll_SPLITT-OUT-X57-LSmitll_DFFT-IN 0 z0=5 td=2.9ps
X44 X22-LSmitll_DFFT-OUT-X44-LSmitll_SPLITT-IN X44-LSmitll_SPLITT-OUT-X197-LSmitll_SPLITT-INt X44-LSmitll_SPLITT-OUT-X57-LSmitll_DFFT-INt LSmitll_SPLITT

t941 X45-LSmitll_SPLITT-OUT-X248-LSmitll_AND2T-INt 0 X45-LSmitll_SPLITT-OUT-X248-LSmitll_AND2T-IN 0 z0=5 td=3.9ps
t942 X45-LSmitll_SPLITT-OUT-X59-LSmitll_DFFT-INt 0 X45-LSmitll_SPLITT-OUT-X59-LSmitll_DFFT-IN 0 z0=5 td=2.7ps
X45 X23-LSmitll_DFFT-OUT-X45-LSmitll_SPLITT-IN X45-LSmitll_SPLITT-OUT-X248-LSmitll_AND2T-INt X45-LSmitll_SPLITT-OUT-X59-LSmitll_DFFT-INt LSmitll_SPLITT

t943 X46-LSmitll_SPLITT-OUT-X204-LSmitll_SPLITT-INt 0 X46-LSmitll_SPLITT-OUT-X204-LSmitll_SPLITT-IN 0 z0=5 td=4.8ps
t944 X46-LSmitll_SPLITT-OUT-X60-LSmitll_DFFT-INt 0 X46-LSmitll_SPLITT-OUT-X60-LSmitll_DFFT-IN 0 z0=5 td=2.5ps
X46 X25-LSmitll_DFFT-OUT-X46-LSmitll_SPLITT-IN X46-LSmitll_SPLITT-OUT-X204-LSmitll_SPLITT-INt X46-LSmitll_SPLITT-OUT-X60-LSmitll_DFFT-INt LSmitll_SPLITT

t945 X47-LSmitll_SPLITT-OUT-X262-LSmitll_AND2T-INt 0 X47-LSmitll_SPLITT-OUT-X262-LSmitll_AND2T-IN 0 z0=5 td=1.7ps
t946 X47-LSmitll_SPLITT-OUT-X62-LSmitll_DFFT-INt 0 X47-LSmitll_SPLITT-OUT-X62-LSmitll_DFFT-IN 0 z0=5 td=4.9ps
X47 X26-LSmitll_DFFT-OUT-X47-LSmitll_SPLITT-IN X47-LSmitll_SPLITT-OUT-X262-LSmitll_AND2T-INt X47-LSmitll_SPLITT-OUT-X62-LSmitll_DFFT-INt LSmitll_SPLITT

t947 X48-LSmitll_SPLITT-OUT-X211-LSmitll_SPLITT-INt 0 X48-LSmitll_SPLITT-OUT-X211-LSmitll_SPLITT-IN 0 z0=5 td=2.9ps
t948 X48-LSmitll_SPLITT-OUT-X63-LSmitll_DFFT-INt 0 X48-LSmitll_SPLITT-OUT-X63-LSmitll_DFFT-IN 0 z0=5 td=2.8ps
X48 X28-LSmitll_DFFT-OUT-X48-LSmitll_SPLITT-IN X48-LSmitll_SPLITT-OUT-X211-LSmitll_SPLITT-INt X48-LSmitll_SPLITT-OUT-X63-LSmitll_DFFT-INt LSmitll_SPLITT

t949 X49-LSmitll_SPLITT-OUT-X66-LSmitll_AND2T-INt 0 X49-LSmitll_SPLITT-OUT-X66-LSmitll_AND2T-IN 0 z0=5 td=2.4ps
t950 X49-LSmitll_SPLITT-OUT-X65-LSmitll_AND2T-INt 0 X49-LSmitll_SPLITT-OUT-X65-LSmitll_AND2T-IN 0 z0=5 td=1.0ps
X49 X33-LSmitll_OR2T-OUT-X49-LSmitll_SPLITT-IN X49-LSmitll_SPLITT-OUT-X66-LSmitll_AND2T-INt X49-LSmitll_SPLITT-OUT-X65-LSmitll_AND2T-INt LSmitll_SPLITT

t951 X50-LSmitll_SPLITT-OUT-X68-LSmitll_AND2T-INt 0 X50-LSmitll_SPLITT-OUT-X68-LSmitll_AND2T-IN 0 z0=5 td=2.3ps
t952 X50-LSmitll_SPLITT-OUT-X67-LSmitll_AND2T-INt 0 X50-LSmitll_SPLITT-OUT-X67-LSmitll_AND2T-IN 0 z0=5 td=2.6ps
X50 X34-LSmitll_OR2T-OUT-X50-LSmitll_SPLITT-IN X50-LSmitll_SPLITT-OUT-X68-LSmitll_AND2T-INt X50-LSmitll_SPLITT-OUT-X67-LSmitll_AND2T-INt LSmitll_SPLITT

t953 X51-LSmitll_SPLITT-OUT-X70-LSmitll_AND2T-INt 0 X51-LSmitll_SPLITT-OUT-X70-LSmitll_AND2T-IN 0 z0=5 td=4.9ps
t954 X51-LSmitll_SPLITT-OUT-X69-LSmitll_AND2T-INt 0 X51-LSmitll_SPLITT-OUT-X69-LSmitll_AND2T-IN 0 z0=5 td=1.0ps
X51 X35-LSmitll_OR2T-OUT-X51-LSmitll_SPLITT-IN X51-LSmitll_SPLITT-OUT-X70-LSmitll_AND2T-INt X51-LSmitll_SPLITT-OUT-X69-LSmitll_AND2T-INt LSmitll_SPLITT

t955 X52-LSmitll_SPLITT-OUT-X72-LSmitll_AND2T-INt 0 X52-LSmitll_SPLITT-OUT-X72-LSmitll_AND2T-IN 0 z0=5 td=1.6ps
t956 X52-LSmitll_SPLITT-OUT-X71-LSmitll_AND2T-INt 0 X52-LSmitll_SPLITT-OUT-X71-LSmitll_AND2T-IN 0 z0=5 td=4.1ps
X52 X36-LSmitll_OR2T-OUT-X52-LSmitll_SPLITT-IN X52-LSmitll_SPLITT-OUT-X72-LSmitll_AND2T-INt X52-LSmitll_SPLITT-OUT-X71-LSmitll_AND2T-INt LSmitll_SPLITT

t957 X53-LSmitll_DFFT-OUT-X73-LSmitll_SPLITT-INt 0 X53-LSmitll_DFFT-OUT-X73-LSmitll_SPLITT-IN 0 z0=5 td=3.4ps
X53 X41-LSmitll_SPLITT-OUT-X53-LSmitll_DFFT-IN X457-LSmitll_SPLITT-OUT-X53-LSmitll_DFFT-IN X53-LSmitll_DFFT-OUT-X73-LSmitll_SPLITT-INt LSmitll_DFFT

t958 X54-LSmitll_DFFT-OUT-X55-LSmitll_DFFT-INt 0 X54-LSmitll_DFFT-OUT-X55-LSmitll_DFFT-IN 0 z0=5 td=2.1ps
X54 X42-LSmitll_SPLITT-OUT-X54-LSmitll_DFFT-IN X457-LSmitll_SPLITT-OUT-X54-LSmitll_DFFT-IN X54-LSmitll_DFFT-OUT-X55-LSmitll_DFFT-INt LSmitll_DFFT

t959 X55-LSmitll_DFFT-OUT-X74-LSmitll_SPLITT-INt 0 X55-LSmitll_DFFT-OUT-X74-LSmitll_SPLITT-IN 0 z0=5 td=1.7ps
X55 X54-LSmitll_DFFT-OUT-X55-LSmitll_DFFT-IN X529-LSmitll_SPLITT-OUT-X55-LSmitll_DFFT-IN X55-LSmitll_DFFT-OUT-X74-LSmitll_SPLITT-INt LSmitll_DFFT

t960 X56-LSmitll_DFFT-OUT-X75-LSmitll_SPLITT-INt 0 X56-LSmitll_DFFT-OUT-X75-LSmitll_SPLITT-IN 0 z0=5 td=7.4ps
X56 X43-LSmitll_SPLITT-OUT-X56-LSmitll_DFFT-IN X432-LSmitll_SPLITT-OUT-X56-LSmitll_DFFT-IN X56-LSmitll_DFFT-OUT-X75-LSmitll_SPLITT-INt LSmitll_DFFT

t961 X57-LSmitll_DFFT-OUT-X58-LSmitll_DFFT-INt 0 X57-LSmitll_DFFT-OUT-X58-LSmitll_DFFT-IN 0 z0=5 td=2.3ps
X57 X44-LSmitll_SPLITT-OUT-X57-LSmitll_DFFT-IN X452-LSmitll_SPLITT-OUT-X57-LSmitll_DFFT-IN X57-LSmitll_DFFT-OUT-X58-LSmitll_DFFT-INt LSmitll_DFFT

t962 X58-LSmitll_DFFT-OUT-X76-LSmitll_SPLITT-INt 0 X58-LSmitll_DFFT-OUT-X76-LSmitll_SPLITT-IN 0 z0=5 td=4.7ps
X58 X57-LSmitll_DFFT-OUT-X58-LSmitll_DFFT-IN X452-LSmitll_SPLITT-OUT-X58-LSmitll_DFFT-IN X58-LSmitll_DFFT-OUT-X76-LSmitll_SPLITT-INt LSmitll_DFFT

t963 X59-LSmitll_DFFT-OUT-X77-LSmitll_SPLITT-INt 0 X59-LSmitll_DFFT-OUT-X77-LSmitll_SPLITT-IN 0 z0=5 td=1.3ps
X59 X45-LSmitll_SPLITT-OUT-X59-LSmitll_DFFT-IN X427-LSmitll_SPLITT-OUT-X59-LSmitll_DFFT-IN X59-LSmitll_DFFT-OUT-X77-LSmitll_SPLITT-INt LSmitll_DFFT

t964 X60-LSmitll_DFFT-OUT-X61-LSmitll_DFFT-INt 0 X60-LSmitll_DFFT-OUT-X61-LSmitll_DFFT-IN 0 z0=5 td=2.9ps
X60 X46-LSmitll_SPLITT-OUT-X60-LSmitll_DFFT-IN X350-LSmitll_SPLITT-OUT-X60-LSmitll_DFFT-IN X60-LSmitll_DFFT-OUT-X61-LSmitll_DFFT-INt LSmitll_DFFT

t965 X61-LSmitll_DFFT-OUT-X78-LSmitll_SPLITT-INt 0 X61-LSmitll_DFFT-OUT-X78-LSmitll_SPLITT-IN 0 z0=5 td=5.1ps
X61 X60-LSmitll_DFFT-OUT-X61-LSmitll_DFFT-IN X359-LSmitll_SPLITT-OUT-X61-LSmitll_DFFT-IN X61-LSmitll_DFFT-OUT-X78-LSmitll_SPLITT-INt LSmitll_DFFT

t966 X62-LSmitll_DFFT-OUT-X79-LSmitll_SPLITT-INt 0 X62-LSmitll_DFFT-OUT-X79-LSmitll_SPLITT-IN 0 z0=5 td=9.4ps
X62 X47-LSmitll_SPLITT-OUT-X62-LSmitll_DFFT-IN X334-LSmitll_SPLITT-OUT-X62-LSmitll_DFFT-IN X62-LSmitll_DFFT-OUT-X79-LSmitll_SPLITT-INt LSmitll_DFFT

t967 X63-LSmitll_DFFT-OUT-X64-LSmitll_DFFT-INt 0 X63-LSmitll_DFFT-OUT-X64-LSmitll_DFFT-IN 0 z0=5 td=0.9ps
X63 X48-LSmitll_SPLITT-OUT-X63-LSmitll_DFFT-IN X325-LSmitll_SPLITT-OUT-X63-LSmitll_DFFT-IN X63-LSmitll_DFFT-OUT-X64-LSmitll_DFFT-INt LSmitll_DFFT

t968 X64-LSmitll_DFFT-OUT-X80-LSmitll_SPLITT-INt 0 X64-LSmitll_DFFT-OUT-X80-LSmitll_SPLITT-IN 0 z0=5 td=2.5ps
X64 X63-LSmitll_DFFT-OUT-X64-LSmitll_DFFT-IN X325-LSmitll_SPLITT-OUT-X64-LSmitll_DFFT-IN X64-LSmitll_DFFT-OUT-X80-LSmitll_SPLITT-INt LSmitll_DFFT

t969 X65-LSmitll_AND2T-OUT-X81-LSmitll_SPLITT-INt 0 X65-LSmitll_AND2T-OUT-X81-LSmitll_SPLITT-IN 0 z0=5 td=1.3ps
X65 X29-LSmitll_DFFT-OUT-X65-LSmitll_AND2T-IN X49-LSmitll_SPLITT-OUT-X65-LSmitll_AND2T-IN X365-LSmitll_SPLITT-OUT-X65-LSmitll_AND2T-IN X65-LSmitll_AND2T-OUT-X81-LSmitll_SPLITT-INt LSmitll_AND2T

t970 X66-LSmitll_AND2T-OUT-X82-LSmitll_SPLITT-INt 0 X66-LSmitll_AND2T-OUT-X82-LSmitll_SPLITT-IN 0 z0=5 td=2.2ps
X66 X37-LSmitll_NOTT-OUT-X66-LSmitll_AND2T-IN X49-LSmitll_SPLITT-OUT-X66-LSmitll_AND2T-IN X436-LSmitll_SPLITT-OUT-X66-LSmitll_AND2T-IN X66-LSmitll_AND2T-OUT-X82-LSmitll_SPLITT-INt LSmitll_AND2T
