.subckt 1_to_3_split a q0 q1 q2 
XSPLIT0 LSmitll_SPLIT a  a0 a1 
XSPLIT1 LSmitll_SPLIT a0 q0 q1 
XSPLIT2 LSMITLL_BUFF  a1 q2
.ends 1_to_3_split

* 1 to 4 clock splitter
.subckt 1_to_4_split a q0 q1 q2 q3
XSPLIT0 LSmitll_SPLIT a  a0 a1 
XSPLIT1 LSmitll_SPLIT a0 q0 q1 
XSPLIT2 LSmitll_SPLIT a1 q2 q3
.ends 1_to_4_split

.subckt 1_to_5_split a q0 q1 q2 q3 q4
XSPLIT0 LSmitll_SPLIT a  a0   a1 
XSPLIT1 LSmitll_SPLIT a0 a0_0 a0_1
XSPLIT2 LSmitll_SPLIT a1 a1_0 a1_1
XBUFF0 LSMITLL_BUFF a0_0 q0
XBUFF1 LSMITLL_BUFF a0_1 q1
XBUFF2 LSMITLL_BUFF a1_0 q2
XSPLIT3 LSmitll_SPLIT a1_1 q3 q4
.ends 1_to_5_split

.subckt 1_to_6_split a q0 q1 q2 q3 q4 q5
XSPLIT0 LSmitll_SPLIT a  a0   a1 
XSPLIT1 LSmitll_SPLIT a0 a0_0 a0_1
XSPLIT2 LSmitll_SPLIT a1 a1_0 a1_1
XBUFF0 LSMITLL_BUFF a0_0 q0
XBUFF1 LSMITLL_BUFF a0_1 q1
XBUFF2 LSmitll_SPLIT a1_0 q2 q3
XSPLIT3 LSmitll_SPLIT a1_1 q4 q5
.ends 1_to_6_split

* 1 to 8 clock splitter
.subckt 1_to_8_split a q0 q1 q2 q3 q4 q5 q6 q7
XSPLIT0 LSmitll_SPLIT a a0 a1 
XSPLIT1 LSmitll_SPLIT a0 a0_0 a0_1
XSPLIT2 LSmitll_SPLIT a1 a1_0 a1_1
XSPLIT3 LSmitll_SPLIT a0_0 q0 q1
XSPLIT4 LSmitll_SPLIT a0_1 q2 q3
XSPLIT5 LSmitll_SPLIT a1_0 q4 q5
XSPLIT6 LSmitll_SPLIT a1_1 q6 q7
.ends 1_to_8_split

* 1 to 16 clock splitter
.subckt 1_to_16_split a q0 q1 q2 q3 q4 q5 q6 q7 q8 q9 q10 q11 q12 q13 q14 q15
XSPLIT0  LSmitll_SPLIT a a0 a1
XSPLIT1  LSmitll_SPLIT a0 a0_0 a0_1
XSPLIT2  LSmitll_SPLIT a1 a1_0 a1_1
XSPLIT3  LSmitll_SPLIT a0_0 a0_0_0 a0_0_1
XSPLIT4  LSmitll_SPLIT a0_1 a0_1_0 a0_1_1
XSPLIT5  LSmitll_SPLIT a1_0 a1_0_0 a1_0_1
XSPLIT6  LSmitll_SPLIT a1_1 a1_1_0 a1_1_1
XSPLIT7  LSmitll_SPLIT a0_0_0 q0 q1
XSPLIT8  LSmitll_SPLIT a0_0_1 q2 q3
XSPLIT9  LSmitll_SPLIT a0_1_0 q4 q5 
XSPLIT10 LSmitll_SPLIT a0_1_1 q6 q7
XSPLIT11 LSmitll_SPLIT a1_0_0 q8 q9
XSPLIT12 LSmitll_SPLIT a1_0_1 q10 q11
XSPLIT13 LSmitll_SPLIT a1_1_0 q12 q13
XSPLIT14 LSmitll_SPLIT a1_1_1 q14 q15
.ends 1_to_16_split

* 1 to 32 clock splitter
.subckt 1_to_32_split a q0 q1 q2 q3 q4 q5 q6 q7 q8 q9 q10 q11 q12 q13 q14 q15 q16 q17 q18 q19 q20 q21 q22 q23 q24 q25 q26 q27 q28 q29 q30 q31 
XSPLIT_16 1_to_16_split a 1 2 3 4 5 6 7 8 9 10 11 12 13 14 15 16 
XSPLIT1 LSmitll_SPLIT 1 q0 q1
XSPLIT2 LSmitll_SPLIT 2 q2 q3
XSPLIT3 LSmitll_SPLIT 3 q4 q5
XSPLIT4 LSmitll_SPLIT 4 q6 q7
XSPLIT5 LSmitll_SPLIT 5 q8 q9
XSPLIT6 LSmitll_SPLIT 6 q10 q11
XSPLIT7 LSmitll_SPLIT 7 q12 q13
XSPLIT8 LSmitll_SPLIT 8 q14 q15
XSPLIT9 LSmitll_SPLIT 9 q16 q17
XSPLIT10 LSmitll_SPLIT 10 q18 q19
XSPLIT11 LSmitll_SPLIT 11 q20 q21
XSPLIT12 LSmitll_SPLIT 12 q22 q23
XSPLIT13 LSmitll_SPLIT 13 q24 q25
XSPLIT14 LSmitll_SPLIT 14 q26 q27
XSPLIT15 LSmitll_SPLIT 15 q28 q29
XSPLIT16 LSmitll_SPLIT 16 q30 q31
.ends 1_to_32_split

* 1 to 64 clock splitter
.subckt 1_to_64_split a q0 q1 q2 q3 q4 q5 q6 q7 q8 q9 q10 q11 q12 q13 q14 q15 q16 q17 q18 q19 q20 q21 q22 q23 q24 q25 q26 q27 q28 q29 q30 q31 q32 q33 q34 q35 q36 q37 q38 q39 q40 q41 q42 q43 q44 q45 q46 q47 q48 q49 q50 q51 q52 q53 q54 q55 q56 q57 q58 q59 q60 q61 q62 q63 
XSPLIT_32 1_to_32_split a 1 2 3 4 5 6 7 8 9 10 11 12 13 14 15 16 17 18 19 20 21 22 23 24 25 26 27 28 29 30 31 32 
XSPLIT1 LSmitll_SPLIT 1 q0 q1
XSPLIT2 LSmitll_SPLIT 2 q2 q3
XSPLIT3 LSmitll_SPLIT 3 q4 q5
XSPLIT4 LSmitll_SPLIT 4 q6 q7
XSPLIT5 LSmitll_SPLIT 5 q8 q9
XSPLIT6 LSmitll_SPLIT 6 q10 q11
XSPLIT7 LSmitll_SPLIT 7 q12 q13
XSPLIT8 LSmitll_SPLIT 8 q14 q15
XSPLIT9 LSmitll_SPLIT 9 q16 q17
XSPLIT10 LSmitll_SPLIT 10 q18 q19
XSPLIT11 LSmitll_SPLIT 11 q20 q21
XSPLIT12 LSmitll_SPLIT 12 q22 q23
XSPLIT13 LSmitll_SPLIT 13 q24 q25
XSPLIT14 LSmitll_SPLIT 14 q26 q27
XSPLIT15 LSmitll_SPLIT 15 q28 q29
XSPLIT16 LSmitll_SPLIT 16 q30 q31
XSPLIT17 LSmitll_SPLIT 17 q32 q33
XSPLIT18 LSmitll_SPLIT 18 q34 q35
XSPLIT19 LSmitll_SPLIT 19 q36 q37
XSPLIT20 LSmitll_SPLIT 20 q38 q39
XSPLIT21 LSmitll_SPLIT 21 q40 q41
XSPLIT22 LSmitll_SPLIT 22 q42 q43
XSPLIT23 LSmitll_SPLIT 23 q44 q45
XSPLIT24 LSmitll_SPLIT 24 q46 q47
XSPLIT25 LSmitll_SPLIT 25 q48 q49
XSPLIT26 LSmitll_SPLIT 26 q50 q51
XSPLIT27 LSmitll_SPLIT 27 q52 q53
XSPLIT28 LSmitll_SPLIT 28 q54 q55
XSPLIT29 LSmitll_SPLIT 29 q56 q57
XSPLIT30 LSmitll_SPLIT 30 q58 q59
XSPLIT31 LSmitll_SPLIT 31 q60 q61
XSPLIT32 LSmitll_SPLIT 32 q62 q63
.ends 1_to_64_split

.subckt 1_to_128_split a q0 q1 q2 q3 q4 q5 q6 q7 q8 q9 q10 q11 q12 q13 q14 q15 q16 q17 q18 q19 q20 q21 q22 q23 q24 q25 q26 q27 q28 q29 q30 q31 q32 q33 q34 q35 q36 q37 q38 q39 q40 q41 q42 q43 q44 q45 q46 q47 q48 q49 q50 q51 q52 q53 q54 q55 q56 q57 q58 q59 q60 q61 q62 q63 q64 q65 q66 q67 q68 q69 q70 q71 q72 q73 q74 q75 q76 q77 q78 q79 q80 q81 q82 q83 q84 q85 q86 q87 q88 q89 q90 q91 q92 q93 q94 q95 q96 q97 q98 q99 q100 q101 q102 q103 q104 q105 q106 q107 q108 q109 q110 q111 q112 q113 q114 q115 q116 q117 q118 q119 q120 q121 q122 q123 q124 q125 q126 q127 
XSPLIT_64 1_to_64_split a 1 2 3 4 5 6 7 8 9 10 11 12 13 14 15 16 17 18 19 20 21 22 23 24 25 26 27 28 29 30 31 32 33 34 35 36 37 38 39 40 41 42 43 44 45 46 47 48 49 50 51 52 53 54 55 56 57 58 59 60 61 62 63 64 
XSPLIT1 LSmitll_SPLIT 1 q0 q1
XSPLIT2 LSmitll_SPLIT 2 q2 q3
XSPLIT3 LSmitll_SPLIT 3 q4 q5
XSPLIT4 LSmitll_SPLIT 4 q6 q7
XSPLIT5 LSmitll_SPLIT 5 q8 q9
XSPLIT6 LSmitll_SPLIT 6 q10 q11
XSPLIT7 LSmitll_SPLIT 7 q12 q13
XSPLIT8 LSmitll_SPLIT 8 q14 q15
XSPLIT9 LSmitll_SPLIT 9 q16 q17
XSPLIT10 LSmitll_SPLIT 10 q18 q19
XSPLIT11 LSmitll_SPLIT 11 q20 q21
XSPLIT12 LSmitll_SPLIT 12 q22 q23
XSPLIT13 LSmitll_SPLIT 13 q24 q25
XSPLIT14 LSmitll_SPLIT 14 q26 q27
XSPLIT15 LSmitll_SPLIT 15 q28 q29
XSPLIT16 LSmitll_SPLIT 16 q30 q31
XSPLIT17 LSmitll_SPLIT 17 q32 q33
XSPLIT18 LSmitll_SPLIT 18 q34 q35
XSPLIT19 LSmitll_SPLIT 19 q36 q37
XSPLIT20 LSmitll_SPLIT 20 q38 q39
XSPLIT21 LSmitll_SPLIT 21 q40 q41
XSPLIT22 LSmitll_SPLIT 22 q42 q43
XSPLIT23 LSmitll_SPLIT 23 q44 q45
XSPLIT24 LSmitll_SPLIT 24 q46 q47
XSPLIT25 LSmitll_SPLIT 25 q48 q49
XSPLIT26 LSmitll_SPLIT 26 q50 q51
XSPLIT27 LSmitll_SPLIT 27 q52 q53
XSPLIT28 LSmitll_SPLIT 28 q54 q55
XSPLIT29 LSmitll_SPLIT 29 q56 q57
XSPLIT30 LSmitll_SPLIT 30 q58 q59
XSPLIT31 LSmitll_SPLIT 31 q60 q61
XSPLIT32 LSmitll_SPLIT 32 q62 q63
XSPLIT33 LSmitll_SPLIT 33 q64 q65
XSPLIT34 LSmitll_SPLIT 34 q66 q67
XSPLIT35 LSmitll_SPLIT 35 q68 q69
XSPLIT36 LSmitll_SPLIT 36 q70 q71
XSPLIT37 LSmitll_SPLIT 37 q72 q73
XSPLIT38 LSmitll_SPLIT 38 q74 q75
XSPLIT39 LSmitll_SPLIT 39 q76 q77
XSPLIT40 LSmitll_SPLIT 40 q78 q79
XSPLIT41 LSmitll_SPLIT 41 q80 q81
XSPLIT42 LSmitll_SPLIT 42 q82 q83
XSPLIT43 LSmitll_SPLIT 43 q84 q85
XSPLIT44 LSmitll_SPLIT 44 q86 q87
XSPLIT45 LSmitll_SPLIT 45 q88 q89
XSPLIT46 LSmitll_SPLIT 46 q90 q91
XSPLIT47 LSmitll_SPLIT 47 q92 q93
XSPLIT48 LSmitll_SPLIT 48 q94 q95
XSPLIT49 LSmitll_SPLIT 49 q96 q97
XSPLIT50 LSmitll_SPLIT 50 q98 q99
XSPLIT51 LSmitll_SPLIT 51 q100 q101
XSPLIT52 LSmitll_SPLIT 52 q102 q103
XSPLIT53 LSmitll_SPLIT 53 q104 q105
XSPLIT54 LSmitll_SPLIT 54 q106 q107
XSPLIT55 LSmitll_SPLIT 55 q108 q109
XSPLIT56 LSmitll_SPLIT 56 q110 q111
XSPLIT57 LSmitll_SPLIT 57 q112 q113
XSPLIT58 LSmitll_SPLIT 58 q114 q115
XSPLIT59 LSmitll_SPLIT 59 q116 q117
XSPLIT60 LSmitll_SPLIT 60 q118 q119
XSPLIT61 LSmitll_SPLIT 61 q120 q121
XSPLIT62 LSmitll_SPLIT 62 q122 q123
XSPLIT63 LSmitll_SPLIT 63 q124 q125
XSPLIT64 LSmitll_SPLIT 64 q126 q127
.ends 1_to_128_split

.subckt 1_to_256_split a q0 q1 q2 q3 q4 q5 q6 q7 q8 q9 q10 q11 q12 q13 q14 q15 q16 q17 q18 q19 q20 q21 q22 q23 q24 q25 q26 q27 q28 q29 q30 q31 q32 q33 q34 q35 q36 q37 q38 q39 q40 q41 q42 q43 q44 q45 q46 q47 q48 q49 q50 q51 q52 q53 q54 q55 q56 q57 q58 q59 q60 q61 q62 q63 q64 q65 q66 q67 q68 q69 q70 q71 q72 q73 q74 q75 q76 q77 q78 q79 q80 q81 q82 q83 q84 q85 q86 q87 q88 q89 q90 q91 q92 q93 q94 q95 q96 q97 q98 q99 q100 q101 q102 q103 q104 q105 q106 q107 q108 q109 q110 q111 q112 q113 q114 q115 q116 q117 q118 q119 q120 q121 q122 q123 q124 q125 q126 q127 q128 q129 q130 q131 q132 q133 q134 q135 q136 q137 q138 q139 q140 q141 q142 q143 q144 q145 q146 q147 q148 q149 q150 q151 q152 q153 q154 q155 q156 q157 q158 q159 q160 q161 q162 q163 q164 q165 q166 q167 q168 q169 q170 q171 q172 q173 q174 q175 q176 q177 q178 q179 q180 q181 q182 q183 q184 q185 q186 q187 q188 q189 q190 q191 q192 q193 q194 q195 q196 q197 q198 q199 q200 q201 q202 q203 q204 q205 q206 q207 q208 q209 q210 q211 q212 q213 q214 q215 q216 q217 q218 q219 q220 q221 q222 q223 q224 q225 q226 q227 q228 q229 q230 q231 q232 q233 q234 q235 q236 q237 q238 q239 q240 q241 q242 q243 q244 q245 q246 q247 q248 q249 q250 q251 q252 q253 q254 q255 
XSPLIT_128 1_to_128_split a 1 2 3 4 5 6 7 8 9 10 11 12 13 14 15 16 17 18 19 20 21 22 23 24 25 26 27 28 29 30 31 32 33 34 35 36 37 38 39 40 41 42 43 44 45 46 47 48 49 50 51 52 53 54 55 56 57 58 59 60 61 62 63 64 65 66 67 68 69 70 71 72 73 74 75 76 77 78 79 80 81 82 83 84 85 86 87 88 89 90 91 92 93 94 95 96 97 98 99 100 101 102 103 104 105 106 107 108 109 110 111 112 113 114 115 116 117 118 119 120 121 122 123 124 125 126 127 128 
XSPLIT1 LSmitll_SPLIT 1 q0 q1
XSPLIT2 LSmitll_SPLIT 2 q2 q3
XSPLIT3 LSmitll_SPLIT 3 q4 q5
XSPLIT4 LSmitll_SPLIT 4 q6 q7
XSPLIT5 LSmitll_SPLIT 5 q8 q9
XSPLIT6 LSmitll_SPLIT 6 q10 q11
XSPLIT7 LSmitll_SPLIT 7 q12 q13
XSPLIT8 LSmitll_SPLIT 8 q14 q15
XSPLIT9 LSmitll_SPLIT 9 q16 q17
XSPLIT10 LSmitll_SPLIT 10 q18 q19
XSPLIT11 LSmitll_SPLIT 11 q20 q21
XSPLIT12 LSmitll_SPLIT 12 q22 q23
XSPLIT13 LSmitll_SPLIT 13 q24 q25
XSPLIT14 LSmitll_SPLIT 14 q26 q27
XSPLIT15 LSmitll_SPLIT 15 q28 q29
XSPLIT16 LSmitll_SPLIT 16 q30 q31
XSPLIT17 LSmitll_SPLIT 17 q32 q33
XSPLIT18 LSmitll_SPLIT 18 q34 q35
XSPLIT19 LSmitll_SPLIT 19 q36 q37
XSPLIT20 LSmitll_SPLIT 20 q38 q39
XSPLIT21 LSmitll_SPLIT 21 q40 q41
XSPLIT22 LSmitll_SPLIT 22 q42 q43
XSPLIT23 LSmitll_SPLIT 23 q44 q45
XSPLIT24 LSmitll_SPLIT 24 q46 q47
XSPLIT25 LSmitll_SPLIT 25 q48 q49
XSPLIT26 LSmitll_SPLIT 26 q50 q51
XSPLIT27 LSmitll_SPLIT 27 q52 q53
XSPLIT28 LSmitll_SPLIT 28 q54 q55
XSPLIT29 LSmitll_SPLIT 29 q56 q57
XSPLIT30 LSmitll_SPLIT 30 q58 q59
XSPLIT31 LSmitll_SPLIT 31 q60 q61
XSPLIT32 LSmitll_SPLIT 32 q62 q63
XSPLIT33 LSmitll_SPLIT 33 q64 q65
XSPLIT34 LSmitll_SPLIT 34 q66 q67
XSPLIT35 LSmitll_SPLIT 35 q68 q69
XSPLIT36 LSmitll_SPLIT 36 q70 q71
XSPLIT37 LSmitll_SPLIT 37 q72 q73
XSPLIT38 LSmitll_SPLIT 38 q74 q75
XSPLIT39 LSmitll_SPLIT 39 q76 q77
XSPLIT40 LSmitll_SPLIT 40 q78 q79
XSPLIT41 LSmitll_SPLIT 41 q80 q81
XSPLIT42 LSmitll_SPLIT 42 q82 q83
XSPLIT43 LSmitll_SPLIT 43 q84 q85
XSPLIT44 LSmitll_SPLIT 44 q86 q87
XSPLIT45 LSmitll_SPLIT 45 q88 q89
XSPLIT46 LSmitll_SPLIT 46 q90 q91
XSPLIT47 LSmitll_SPLIT 47 q92 q93
XSPLIT48 LSmitll_SPLIT 48 q94 q95
XSPLIT49 LSmitll_SPLIT 49 q96 q97
XSPLIT50 LSmitll_SPLIT 50 q98 q99
XSPLIT51 LSmitll_SPLIT 51 q100 q101
XSPLIT52 LSmitll_SPLIT 52 q102 q103
XSPLIT53 LSmitll_SPLIT 53 q104 q105
XSPLIT54 LSmitll_SPLIT 54 q106 q107
XSPLIT55 LSmitll_SPLIT 55 q108 q109
XSPLIT56 LSmitll_SPLIT 56 q110 q111
XSPLIT57 LSmitll_SPLIT 57 q112 q113
XSPLIT58 LSmitll_SPLIT 58 q114 q115
XSPLIT59 LSmitll_SPLIT 59 q116 q117
XSPLIT60 LSmitll_SPLIT 60 q118 q119
XSPLIT61 LSmitll_SPLIT 61 q120 q121
XSPLIT62 LSmitll_SPLIT 62 q122 q123
XSPLIT63 LSmitll_SPLIT 63 q124 q125
XSPLIT64 LSmitll_SPLIT 64 q126 q127
XSPLIT65 LSmitll_SPLIT 65 q128 q129
XSPLIT66 LSmitll_SPLIT 66 q130 q131
XSPLIT67 LSmitll_SPLIT 67 q132 q133
XSPLIT68 LSmitll_SPLIT 68 q134 q135
XSPLIT69 LSmitll_SPLIT 69 q136 q137
XSPLIT70 LSmitll_SPLIT 70 q138 q139
XSPLIT71 LSmitll_SPLIT 71 q140 q141
XSPLIT72 LSmitll_SPLIT 72 q142 q143
XSPLIT73 LSmitll_SPLIT 73 q144 q145
XSPLIT74 LSmitll_SPLIT 74 q146 q147
XSPLIT75 LSmitll_SPLIT 75 q148 q149
XSPLIT76 LSmitll_SPLIT 76 q150 q151
XSPLIT77 LSmitll_SPLIT 77 q152 q153
XSPLIT78 LSmitll_SPLIT 78 q154 q155
XSPLIT79 LSmitll_SPLIT 79 q156 q157
XSPLIT80 LSmitll_SPLIT 80 q158 q159
XSPLIT81 LSmitll_SPLIT 81 q160 q161
XSPLIT82 LSmitll_SPLIT 82 q162 q163
XSPLIT83 LSmitll_SPLIT 83 q164 q165
XSPLIT84 LSmitll_SPLIT 84 q166 q167
XSPLIT85 LSmitll_SPLIT 85 q168 q169
XSPLIT86 LSmitll_SPLIT 86 q170 q171
XSPLIT87 LSmitll_SPLIT 87 q172 q173
XSPLIT88 LSmitll_SPLIT 88 q174 q175
XSPLIT89 LSmitll_SPLIT 89 q176 q177
XSPLIT90 LSmitll_SPLIT 90 q178 q179
XSPLIT91 LSmitll_SPLIT 91 q180 q181
XSPLIT92 LSmitll_SPLIT 92 q182 q183
XSPLIT93 LSmitll_SPLIT 93 q184 q185
XSPLIT94 LSmitll_SPLIT 94 q186 q187
XSPLIT95 LSmitll_SPLIT 95 q188 q189
XSPLIT96 LSmitll_SPLIT 96 q190 q191
XSPLIT97 LSmitll_SPLIT 97 q192 q193
XSPLIT98 LSmitll_SPLIT 98 q194 q195
XSPLIT99 LSmitll_SPLIT 99 q196 q197
XSPLIT100 LSmitll_SPLIT 100 q198 q199
XSPLIT101 LSmitll_SPLIT 101 q200 q201
XSPLIT102 LSmitll_SPLIT 102 q202 q203
XSPLIT103 LSmitll_SPLIT 103 q204 q205
XSPLIT104 LSmitll_SPLIT 104 q206 q207
XSPLIT105 LSmitll_SPLIT 105 q208 q209
XSPLIT106 LSmitll_SPLIT 106 q210 q211
XSPLIT107 LSmitll_SPLIT 107 q212 q213
XSPLIT108 LSmitll_SPLIT 108 q214 q215
XSPLIT109 LSmitll_SPLIT 109 q216 q217
XSPLIT110 LSmitll_SPLIT 110 q218 q219
XSPLIT111 LSmitll_SPLIT 111 q220 q221
XSPLIT112 LSmitll_SPLIT 112 q222 q223
XSPLIT113 LSmitll_SPLIT 113 q224 q225
XSPLIT114 LSmitll_SPLIT 114 q226 q227
XSPLIT115 LSmitll_SPLIT 115 q228 q229
XSPLIT116 LSmitll_SPLIT 116 q230 q231
XSPLIT117 LSmitll_SPLIT 117 q232 q233
XSPLIT118 LSmitll_SPLIT 118 q234 q235
XSPLIT119 LSmitll_SPLIT 119 q236 q237
XSPLIT120 LSmitll_SPLIT 120 q238 q239
XSPLIT121 LSmitll_SPLIT 121 q240 q241
XSPLIT122 LSmitll_SPLIT 122 q242 q243
XSPLIT123 LSmitll_SPLIT 123 q244 q245
XSPLIT124 LSmitll_SPLIT 124 q246 q247
XSPLIT125 LSmitll_SPLIT 125 q248 q249
XSPLIT126 LSmitll_SPLIT 126 q250 q251
XSPLIT127 LSmitll_SPLIT 127 q252 q253
XSPLIT128 LSmitll_SPLIT 128 q254 q255
.ends 1_to_256_split

.subckt 1_to_512_split a q0 q1 q2 q3 q4 q5 q6 q7 q8 q9 q10 q11 q12 q13 q14 q15 q16 q17 q18 q19 q20 q21 q22 q23 q24 q25 q26 q27 q28 q29 q30 q31 q32 q33 q34 q35 q36 q37 q38 q39 q40 q41 q42 q43 q44 q45 q46 q47 q48 q49 q50 q51 q52 q53 q54 q55 q56 q57 q58 q59 q60 q61 q62 q63 q64 q65 q66 q67 q68 q69 q70 q71 q72 q73 q74 q75 q76 q77 q78 q79 q80 q81 q82 q83 q84 q85 q86 q87 q88 q89 q90 q91 q92 q93 q94 q95 q96 q97 q98 q99 q100 q101 q102 q103 q104 q105 q106 q107 q108 q109 q110 q111 q112 q113 q114 q115 q116 q117 q118 q119 q120 q121 q122 q123 q124 q125 q126 q127 q128 q129 q130 q131 q132 q133 q134 q135 q136 q137 q138 q139 q140 q141 q142 q143 q144 q145 q146 q147 q148 q149 q150 q151 q152 q153 q154 q155 q156 q157 q158 q159 q160 q161 q162 q163 q164 q165 q166 q167 q168 q169 q170 q171 q172 q173 q174 q175 q176 q177 q178 q179 q180 q181 q182 q183 q184 q185 q186 q187 q188 q189 q190 q191 q192 q193 q194 q195 q196 q197 q198 q199 q200 q201 q202 q203 q204 q205 q206 q207 q208 q209 q210 q211 q212 q213 q214 q215 q216 q217 q218 q219 q220 q221 q222 q223 q224 q225 q226 q227 q228 q229 q230 q231 q232 q233 q234 q235 q236 q237 q238 q239 q240 q241 q242 q243 q244 q245 q246 q247 q248 q249 q250 q251 q252 q253 q254 q255 q256 q257 q258 q259 q260 q261 q262 q263 q264 q265 q266 q267 q268 q269 q270 q271 q272 q273 q274 q275 q276 q277 q278 q279 q280 q281 q282 q283 q284 q285 q286 q287 q288 q289 q290 q291 q292 q293 q294 q295 q296 q297 q298 q299 q300 q301 q302 q303 q304 q305 q306 q307 q308 q309 q310 q311 q312 q313 q314 q315 q316 q317 q318 q319 q320 q321 q322 q323 q324 q325 q326 q327 q328 q329 q330 q331 q332 q333 q334 q335 q336 q337 q338 q339 q340 q341 q342 q343 q344 q345 q346 q347 q348 q349 q350 q351 q352 q353 q354 q355 q356 q357 q358 q359 q360 q361 q362 q363 q364 q365 q366 q367 q368 q369 q370 q371 q372 q373 q374 q375 q376 q377 q378 q379 q380 q381 q382 q383 q384 q385 q386 q387 q388 q389 q390 q391 q392 q393 q394 q395 q396 q397 q398 q399 q400 q401 q402 q403 q404 q405 q406 q407 q408 q409 q410 q411 q412 q413 q414 q415 q416 q417 q418 q419 q420 q421 q422 q423 q424 q425 q426 q427 q428 q429 q430 q431 q432 q433 q434 q435 q436 q437 q438 q439 q440 q441 q442 q443 q444 q445 q446 q447 q448 q449 q450 q451 q452 q453 q454 q455 q456 q457 q458 q459 q460 q461 q462 q463 q464 q465 q466 q467 q468 q469 q470 q471 q472 q473 q474 q475 q476 q477 q478 q479 q480 q481 q482 q483 q484 q485 q486 q487 q488 q489 q490 q491 q492 q493 q494 q495 q496 q497 q498 q499 q500 q501 q502 q503 q504 q505 q506 q507 q508 q509 q510 q511 
XSPLIT_256 1_to_256_split a 1 2 3 4 5 6 7 8 9 10 11 12 13 14 15 16 17 18 19 20 21 22 23 24 25 26 27 28 29 30 31 32 33 34 35 36 37 38 39 40 41 42 43 44 45 46 47 48 49 50 51 52 53 54 55 56 57 58 59 60 61 62 63 64 65 66 67 68 69 70 71 72 73 74 75 76 77 78 79 80 81 82 83 84 85 86 87 88 89 90 91 92 93 94 95 96 97 98 99 100 101 102 103 104 105 106 107 108 109 110 111 112 113 114 115 116 117 118 119 120 121 122 123 124 125 126 127 128 129 130 131 132 133 134 135 136 137 138 139 140 141 142 143 144 145 146 147 148 149 150 151 152 153 154 155 156 157 158 159 160 161 162 163 164 165 166 167 168 169 170 171 172 173 174 175 176 177 178 179 180 181 182 183 184 185 186 187 188 189 190 191 192 193 194 195 196 197 198 199 200 201 202 203 204 205 206 207 208 209 210 211 212 213 214 215 216 217 218 219 220 221 222 223 224 225 226 227 228 229 230 231 232 233 234 235 236 237 238 239 240 241 242 243 244 245 246 247 248 249 250 251 252 253 254 255 256 
XSPLIT1 LSmitll_SPLIT 1 q0 q1
XSPLIT2 LSmitll_SPLIT 2 q2 q3
XSPLIT3 LSmitll_SPLIT 3 q4 q5
XSPLIT4 LSmitll_SPLIT 4 q6 q7
XSPLIT5 LSmitll_SPLIT 5 q8 q9
XSPLIT6 LSmitll_SPLIT 6 q10 q11
XSPLIT7 LSmitll_SPLIT 7 q12 q13
XSPLIT8 LSmitll_SPLIT 8 q14 q15
XSPLIT9 LSmitll_SPLIT 9 q16 q17
XSPLIT10 LSmitll_SPLIT 10 q18 q19
XSPLIT11 LSmitll_SPLIT 11 q20 q21
XSPLIT12 LSmitll_SPLIT 12 q22 q23
XSPLIT13 LSmitll_SPLIT 13 q24 q25
XSPLIT14 LSmitll_SPLIT 14 q26 q27
XSPLIT15 LSmitll_SPLIT 15 q28 q29
XSPLIT16 LSmitll_SPLIT 16 q30 q31
XSPLIT17 LSmitll_SPLIT 17 q32 q33
XSPLIT18 LSmitll_SPLIT 18 q34 q35
XSPLIT19 LSmitll_SPLIT 19 q36 q37
XSPLIT20 LSmitll_SPLIT 20 q38 q39
XSPLIT21 LSmitll_SPLIT 21 q40 q41
XSPLIT22 LSmitll_SPLIT 22 q42 q43
XSPLIT23 LSmitll_SPLIT 23 q44 q45
XSPLIT24 LSmitll_SPLIT 24 q46 q47
XSPLIT25 LSmitll_SPLIT 25 q48 q49
XSPLIT26 LSmitll_SPLIT 26 q50 q51
XSPLIT27 LSmitll_SPLIT 27 q52 q53
XSPLIT28 LSmitll_SPLIT 28 q54 q55
XSPLIT29 LSmitll_SPLIT 29 q56 q57
XSPLIT30 LSmitll_SPLIT 30 q58 q59
XSPLIT31 LSmitll_SPLIT 31 q60 q61
XSPLIT32 LSmitll_SPLIT 32 q62 q63
XSPLIT33 LSmitll_SPLIT 33 q64 q65
XSPLIT34 LSmitll_SPLIT 34 q66 q67
XSPLIT35 LSmitll_SPLIT 35 q68 q69
XSPLIT36 LSmitll_SPLIT 36 q70 q71
XSPLIT37 LSmitll_SPLIT 37 q72 q73
XSPLIT38 LSmitll_SPLIT 38 q74 q75
XSPLIT39 LSmitll_SPLIT 39 q76 q77
XSPLIT40 LSmitll_SPLIT 40 q78 q79
XSPLIT41 LSmitll_SPLIT 41 q80 q81
XSPLIT42 LSmitll_SPLIT 42 q82 q83
XSPLIT43 LSmitll_SPLIT 43 q84 q85
XSPLIT44 LSmitll_SPLIT 44 q86 q87
XSPLIT45 LSmitll_SPLIT 45 q88 q89
XSPLIT46 LSmitll_SPLIT 46 q90 q91
XSPLIT47 LSmitll_SPLIT 47 q92 q93
XSPLIT48 LSmitll_SPLIT 48 q94 q95
XSPLIT49 LSmitll_SPLIT 49 q96 q97
XSPLIT50 LSmitll_SPLIT 50 q98 q99
XSPLIT51 LSmitll_SPLIT 51 q100 q101
XSPLIT52 LSmitll_SPLIT 52 q102 q103
XSPLIT53 LSmitll_SPLIT 53 q104 q105
XSPLIT54 LSmitll_SPLIT 54 q106 q107
XSPLIT55 LSmitll_SPLIT 55 q108 q109
XSPLIT56 LSmitll_SPLIT 56 q110 q111
XSPLIT57 LSmitll_SPLIT 57 q112 q113
XSPLIT58 LSmitll_SPLIT 58 q114 q115
XSPLIT59 LSmitll_SPLIT 59 q116 q117
XSPLIT60 LSmitll_SPLIT 60 q118 q119
XSPLIT61 LSmitll_SPLIT 61 q120 q121
XSPLIT62 LSmitll_SPLIT 62 q122 q123
XSPLIT63 LSmitll_SPLIT 63 q124 q125
XSPLIT64 LSmitll_SPLIT 64 q126 q127
XSPLIT65 LSmitll_SPLIT 65 q128 q129
XSPLIT66 LSmitll_SPLIT 66 q130 q131
XSPLIT67 LSmitll_SPLIT 67 q132 q133
XSPLIT68 LSmitll_SPLIT 68 q134 q135
XSPLIT69 LSmitll_SPLIT 69 q136 q137
XSPLIT70 LSmitll_SPLIT 70 q138 q139
XSPLIT71 LSmitll_SPLIT 71 q140 q141
XSPLIT72 LSmitll_SPLIT 72 q142 q143
XSPLIT73 LSmitll_SPLIT 73 q144 q145
XSPLIT74 LSmitll_SPLIT 74 q146 q147
XSPLIT75 LSmitll_SPLIT 75 q148 q149
XSPLIT76 LSmitll_SPLIT 76 q150 q151
XSPLIT77 LSmitll_SPLIT 77 q152 q153
XSPLIT78 LSmitll_SPLIT 78 q154 q155
XSPLIT79 LSmitll_SPLIT 79 q156 q157
XSPLIT80 LSmitll_SPLIT 80 q158 q159
XSPLIT81 LSmitll_SPLIT 81 q160 q161
XSPLIT82 LSmitll_SPLIT 82 q162 q163
XSPLIT83 LSmitll_SPLIT 83 q164 q165
XSPLIT84 LSmitll_SPLIT 84 q166 q167
XSPLIT85 LSmitll_SPLIT 85 q168 q169
XSPLIT86 LSmitll_SPLIT 86 q170 q171
XSPLIT87 LSmitll_SPLIT 87 q172 q173
XSPLIT88 LSmitll_SPLIT 88 q174 q175
XSPLIT89 LSmitll_SPLIT 89 q176 q177
XSPLIT90 LSmitll_SPLIT 90 q178 q179
XSPLIT91 LSmitll_SPLIT 91 q180 q181
XSPLIT92 LSmitll_SPLIT 92 q182 q183
XSPLIT93 LSmitll_SPLIT 93 q184 q185
XSPLIT94 LSmitll_SPLIT 94 q186 q187
XSPLIT95 LSmitll_SPLIT 95 q188 q189
XSPLIT96 LSmitll_SPLIT 96 q190 q191
XSPLIT97 LSmitll_SPLIT 97 q192 q193
XSPLIT98 LSmitll_SPLIT 98 q194 q195
XSPLIT99 LSmitll_SPLIT 99 q196 q197
XSPLIT100 LSmitll_SPLIT 100 q198 q199
XSPLIT101 LSmitll_SPLIT 101 q200 q201
XSPLIT102 LSmitll_SPLIT 102 q202 q203
XSPLIT103 LSmitll_SPLIT 103 q204 q205
XSPLIT104 LSmitll_SPLIT 104 q206 q207
XSPLIT105 LSmitll_SPLIT 105 q208 q209
XSPLIT106 LSmitll_SPLIT 106 q210 q211
XSPLIT107 LSmitll_SPLIT 107 q212 q213
XSPLIT108 LSmitll_SPLIT 108 q214 q215
XSPLIT109 LSmitll_SPLIT 109 q216 q217
XSPLIT110 LSmitll_SPLIT 110 q218 q219
XSPLIT111 LSmitll_SPLIT 111 q220 q221
XSPLIT112 LSmitll_SPLIT 112 q222 q223
XSPLIT113 LSmitll_SPLIT 113 q224 q225
XSPLIT114 LSmitll_SPLIT 114 q226 q227
XSPLIT115 LSmitll_SPLIT 115 q228 q229
XSPLIT116 LSmitll_SPLIT 116 q230 q231
XSPLIT117 LSmitll_SPLIT 117 q232 q233
XSPLIT118 LSmitll_SPLIT 118 q234 q235
XSPLIT119 LSmitll_SPLIT 119 q236 q237
XSPLIT120 LSmitll_SPLIT 120 q238 q239
XSPLIT121 LSmitll_SPLIT 121 q240 q241
XSPLIT122 LSmitll_SPLIT 122 q242 q243
XSPLIT123 LSmitll_SPLIT 123 q244 q245
XSPLIT124 LSmitll_SPLIT 124 q246 q247
XSPLIT125 LSmitll_SPLIT 125 q248 q249
XSPLIT126 LSmitll_SPLIT 126 q250 q251
XSPLIT127 LSmitll_SPLIT 127 q252 q253
XSPLIT128 LSmitll_SPLIT 128 q254 q255
XSPLIT129 LSmitll_SPLIT 129 q256 q257
XSPLIT130 LSmitll_SPLIT 130 q258 q259
XSPLIT131 LSmitll_SPLIT 131 q260 q261
XSPLIT132 LSmitll_SPLIT 132 q262 q263
XSPLIT133 LSmitll_SPLIT 133 q264 q265
XSPLIT134 LSmitll_SPLIT 134 q266 q267
XSPLIT135 LSmitll_SPLIT 135 q268 q269
XSPLIT136 LSmitll_SPLIT 136 q270 q271
XSPLIT137 LSmitll_SPLIT 137 q272 q273
XSPLIT138 LSmitll_SPLIT 138 q274 q275
XSPLIT139 LSmitll_SPLIT 139 q276 q277
XSPLIT140 LSmitll_SPLIT 140 q278 q279
XSPLIT141 LSmitll_SPLIT 141 q280 q281
XSPLIT142 LSmitll_SPLIT 142 q282 q283
XSPLIT143 LSmitll_SPLIT 143 q284 q285
XSPLIT144 LSmitll_SPLIT 144 q286 q287
XSPLIT145 LSmitll_SPLIT 145 q288 q289
XSPLIT146 LSmitll_SPLIT 146 q290 q291
XSPLIT147 LSmitll_SPLIT 147 q292 q293
XSPLIT148 LSmitll_SPLIT 148 q294 q295
XSPLIT149 LSmitll_SPLIT 149 q296 q297
XSPLIT150 LSmitll_SPLIT 150 q298 q299
XSPLIT151 LSmitll_SPLIT 151 q300 q301
XSPLIT152 LSmitll_SPLIT 152 q302 q303
XSPLIT153 LSmitll_SPLIT 153 q304 q305
XSPLIT154 LSmitll_SPLIT 154 q306 q307
XSPLIT155 LSmitll_SPLIT 155 q308 q309
XSPLIT156 LSmitll_SPLIT 156 q310 q311
XSPLIT157 LSmitll_SPLIT 157 q312 q313
XSPLIT158 LSmitll_SPLIT 158 q314 q315
XSPLIT159 LSmitll_SPLIT 159 q316 q317
XSPLIT160 LSmitll_SPLIT 160 q318 q319
XSPLIT161 LSmitll_SPLIT 161 q320 q321
XSPLIT162 LSmitll_SPLIT 162 q322 q323
XSPLIT163 LSmitll_SPLIT 163 q324 q325
XSPLIT164 LSmitll_SPLIT 164 q326 q327
XSPLIT165 LSmitll_SPLIT 165 q328 q329
XSPLIT166 LSmitll_SPLIT 166 q330 q331
XSPLIT167 LSmitll_SPLIT 167 q332 q333
XSPLIT168 LSmitll_SPLIT 168 q334 q335
XSPLIT169 LSmitll_SPLIT 169 q336 q337
XSPLIT170 LSmitll_SPLIT 170 q338 q339
XSPLIT171 LSmitll_SPLIT 171 q340 q341
XSPLIT172 LSmitll_SPLIT 172 q342 q343
XSPLIT173 LSmitll_SPLIT 173 q344 q345
XSPLIT174 LSmitll_SPLIT 174 q346 q347
XSPLIT175 LSmitll_SPLIT 175 q348 q349
XSPLIT176 LSmitll_SPLIT 176 q350 q351
XSPLIT177 LSmitll_SPLIT 177 q352 q353
XSPLIT178 LSmitll_SPLIT 178 q354 q355
XSPLIT179 LSmitll_SPLIT 179 q356 q357
XSPLIT180 LSmitll_SPLIT 180 q358 q359
XSPLIT181 LSmitll_SPLIT 181 q360 q361
XSPLIT182 LSmitll_SPLIT 182 q362 q363
XSPLIT183 LSmitll_SPLIT 183 q364 q365
XSPLIT184 LSmitll_SPLIT 184 q366 q367
XSPLIT185 LSmitll_SPLIT 185 q368 q369
XSPLIT186 LSmitll_SPLIT 186 q370 q371
XSPLIT187 LSmitll_SPLIT 187 q372 q373
XSPLIT188 LSmitll_SPLIT 188 q374 q375
XSPLIT189 LSmitll_SPLIT 189 q376 q377
XSPLIT190 LSmitll_SPLIT 190 q378 q379
XSPLIT191 LSmitll_SPLIT 191 q380 q381
XSPLIT192 LSmitll_SPLIT 192 q382 q383
XSPLIT193 LSmitll_SPLIT 193 q384 q385
XSPLIT194 LSmitll_SPLIT 194 q386 q387
XSPLIT195 LSmitll_SPLIT 195 q388 q389
XSPLIT196 LSmitll_SPLIT 196 q390 q391
XSPLIT197 LSmitll_SPLIT 197 q392 q393
XSPLIT198 LSmitll_SPLIT 198 q394 q395
XSPLIT199 LSmitll_SPLIT 199 q396 q397
XSPLIT200 LSmitll_SPLIT 200 q398 q399
XSPLIT201 LSmitll_SPLIT 201 q400 q401
XSPLIT202 LSmitll_SPLIT 202 q402 q403
XSPLIT203 LSmitll_SPLIT 203 q404 q405
XSPLIT204 LSmitll_SPLIT 204 q406 q407
XSPLIT205 LSmitll_SPLIT 205 q408 q409
XSPLIT206 LSmitll_SPLIT 206 q410 q411
XSPLIT207 LSmitll_SPLIT 207 q412 q413
XSPLIT208 LSmitll_SPLIT 208 q414 q415
XSPLIT209 LSmitll_SPLIT 209 q416 q417
XSPLIT210 LSmitll_SPLIT 210 q418 q419
XSPLIT211 LSmitll_SPLIT 211 q420 q421
XSPLIT212 LSmitll_SPLIT 212 q422 q423
XSPLIT213 LSmitll_SPLIT 213 q424 q425
XSPLIT214 LSmitll_SPLIT 214 q426 q427
XSPLIT215 LSmitll_SPLIT 215 q428 q429
XSPLIT216 LSmitll_SPLIT 216 q430 q431
XSPLIT217 LSmitll_SPLIT 217 q432 q433
XSPLIT218 LSmitll_SPLIT 218 q434 q435
XSPLIT219 LSmitll_SPLIT 219 q436 q437
XSPLIT220 LSmitll_SPLIT 220 q438 q439
XSPLIT221 LSmitll_SPLIT 221 q440 q441
XSPLIT222 LSmitll_SPLIT 222 q442 q443
XSPLIT223 LSmitll_SPLIT 223 q444 q445
XSPLIT224 LSmitll_SPLIT 224 q446 q447
XSPLIT225 LSmitll_SPLIT 225 q448 q449
XSPLIT226 LSmitll_SPLIT 226 q450 q451
XSPLIT227 LSmitll_SPLIT 227 q452 q453
XSPLIT228 LSmitll_SPLIT 228 q454 q455
XSPLIT229 LSmitll_SPLIT 229 q456 q457
XSPLIT230 LSmitll_SPLIT 230 q458 q459
XSPLIT231 LSmitll_SPLIT 231 q460 q461
XSPLIT232 LSmitll_SPLIT 232 q462 q463
XSPLIT233 LSmitll_SPLIT 233 q464 q465
XSPLIT234 LSmitll_SPLIT 234 q466 q467
XSPLIT235 LSmitll_SPLIT 235 q468 q469
XSPLIT236 LSmitll_SPLIT 236 q470 q471
XSPLIT237 LSmitll_SPLIT 237 q472 q473
XSPLIT238 LSmitll_SPLIT 238 q474 q475
XSPLIT239 LSmitll_SPLIT 239 q476 q477
XSPLIT240 LSmitll_SPLIT 240 q478 q479
XSPLIT241 LSmitll_SPLIT 241 q480 q481
XSPLIT242 LSmitll_SPLIT 242 q482 q483
XSPLIT243 LSmitll_SPLIT 243 q484 q485
XSPLIT244 LSmitll_SPLIT 244 q486 q487
XSPLIT245 LSmitll_SPLIT 245 q488 q489
XSPLIT246 LSmitll_SPLIT 246 q490 q491
XSPLIT247 LSmitll_SPLIT 247 q492 q493
XSPLIT248 LSmitll_SPLIT 248 q494 q495
XSPLIT249 LSmitll_SPLIT 249 q496 q497
XSPLIT250 LSmitll_SPLIT 250 q498 q499
XSPLIT251 LSmitll_SPLIT 251 q500 q501
XSPLIT252 LSmitll_SPLIT 252 q502 q503
XSPLIT253 LSmitll_SPLIT 253 q504 q505
XSPLIT254 LSmitll_SPLIT 254 q506 q507
XSPLIT255 LSmitll_SPLIT 255 q508 q509
XSPLIT256 LSmitll_SPLIT 256 q510 q511
.ends 1_to_512_split
